version 3
run Default-0-20230515-21:49:49-44121
attr configname Default
attr datetime 20230515-21:49:49
attr datetimef 20230515-214949
attr experiment Default
attr inifile omnetpp.ini
attr iterationvars ""
attr iterationvarsd ""
attr iterationvarsf ""
attr measurement ""
attr network pavillonsNetwork
attr processid 44121
attr repetition 0
attr replication #0
attr resultdir results
attr runnumber 0
attr seedset 0
config image-path ../inet4.4/images:../veins-veins-5.2/images
config cmdenv-express-mode true
config cmdenv-autoflush true
config cmdenv-status-frequency 1s
config **.cmdenv-log-level info
config image-path ../../images
config network pavillonsNetwork
config debug-on-errors true
config print-undisposed true
config sim-time-limit 300s
config **.scalar-recording true
config **.vector-recording true
config *.playgroundSizeX 2500m
config *.playgroundSizeY 2500m
config *.playgroundSizeZ 50m
config *.annotations.draw true
config *.obstacles.debug false
config *.manager.updateInterval 1s
config *.manager.host "\"localhost\""
config *.manager.port 9999
config *.manager.autoShutdown true
config *.manager.launchConfig "xmldoc(\"pavillons.launchd.xml\")"
config *.rsu[0].mobility.x 2000
config *.rsu[0].mobility.y 2000
config *.rsu[0].mobility.z 3
config *.rsu[*].applType "\"TraCIDemoRSU11p\""
config *.rsu[*].appl.headerLength "80 bit"
config *.rsu[*].appl.sendBeacons false
config *.rsu[*].appl.dataOnSch false
config *.rsu[*].appl.beaconInterval 1s
config *.rsu[*].appl.beaconUserPriority 7
config *.rsu[*].appl.dataUserPriority 5
config *.rsu[*].nic.phy80211p.antennaOffsetZ "0 m"
config *.connectionManager.sendDirect true
config *.connectionManager.maxInterfDist 2600m
config *.connectionManager.drawMaxIntfDist false
config *.**.nic.mac1609_4.useServiceChannel false
config *.**.nic.mac1609_4.txPower 20mW
config *.**.nic.mac1609_4.bitrate 6Mbps
config *.**.nic.phy80211p.minPowerLevel -110dBm
config *.**.nic.phy80211p.useNoiseFloor true
config *.**.nic.phy80211p.noiseFloor -98dBm
config *.**.nic.phy80211p.decider "xmldoc(\"config.xml\")"
config *.**.nic.phy80211p.analogueModels "xmldoc(\"config.xml\")"
config *.**.nic.phy80211p.usePropagationDelay true
config *.**.nic.phy80211p.antenna "xmldoc(\"antenna.xml\", \"/root/Antenna[@id='monopole']\")"
config *.node[*].nic.phy80211p.antennaOffsetY "0 m"
config *.node[*].nic.phy80211p.antennaOffsetZ "1.895 m"
config *.node[*].applType "\"MyVeinsApp\""
config *.node[*].appl.headerLength "80 bit"
config *.node[*].appl.sendBeacons false
config *.node[*].appl.dataOnSch false
config *.node[*].appl.beaconInterval 1s
config *.node[*].veinsmobility.x 0
config *.node[*].veinsmobility.y 0
config *.node[*].veinsmobility.z 0
config *.node[*].veinsmobility.setHostSpeed false
config *.node[*0].veinsmobility.accidentCount 1
config *.node[*0].veinsmobility.accidentStart 10s
config *.node[*0].veinsmobility.accidentDuration 30s

vector 0 pavillonsNetwork.node[0].veinsmobility posx ETV
vector 1 pavillonsNetwork.node[0].veinsmobility posy ETV
vector 2 pavillonsNetwork.node[1].veinsmobility posx ETV
vector 3 pavillonsNetwork.node[1].veinsmobility posy ETV
vector 4 pavillonsNetwork.node[0].veinsmobility speed ETV
vector 5 pavillonsNetwork.node[2].veinsmobility posx ETV
vector 6 pavillonsNetwork.node[2].veinsmobility posy ETV
vector 7 pavillonsNetwork.node[0].veinsmobility acceleration ETV
vector 8 pavillonsNetwork.node[0].veinsmobility co2emission ETV
vector 9 pavillonsNetwork.node[1].veinsmobility speed ETV
vector 10 pavillonsNetwork.node[3].veinsmobility posx ETV
vector 11 pavillonsNetwork.node[3].veinsmobility posy ETV
vector 12 pavillonsNetwork.node[1].veinsmobility acceleration ETV
vector 13 pavillonsNetwork.node[1].veinsmobility co2emission ETV
vector 14 pavillonsNetwork.node[2].veinsmobility speed ETV
vector 15 pavillonsNetwork.node[4].veinsmobility posx ETV
vector 16 pavillonsNetwork.node[4].veinsmobility posy ETV
vector 17 pavillonsNetwork.node[2].veinsmobility acceleration ETV
vector 18 pavillonsNetwork.node[2].veinsmobility co2emission ETV
vector 19 pavillonsNetwork.node[3].veinsmobility speed ETV
vector 20 pavillonsNetwork.node[3].veinsmobility acceleration ETV
vector 21 pavillonsNetwork.node[3].veinsmobility co2emission ETV
vector 22 pavillonsNetwork.node[4].veinsmobility speed ETV
vector 23 pavillonsNetwork.node[5].veinsmobility posx ETV
vector 24 pavillonsNetwork.node[5].veinsmobility posy ETV
vector 25 pavillonsNetwork.node[4].veinsmobility acceleration ETV
vector 26 pavillonsNetwork.node[4].veinsmobility co2emission ETV
vector 27 pavillonsNetwork.node[6].veinsmobility posx ETV
vector 28 pavillonsNetwork.node[6].veinsmobility posy ETV
vector 29 pavillonsNetwork.node[7].veinsmobility posx ETV
vector 30 pavillonsNetwork.node[7].veinsmobility posy ETV
vector 31 pavillonsNetwork.node[5].veinsmobility speed ETV
vector 32 pavillonsNetwork.node[5].veinsmobility acceleration ETV
vector 33 pavillonsNetwork.node[5].veinsmobility co2emission ETV
vector 34 pavillonsNetwork.node[6].veinsmobility speed ETV
vector 35 pavillonsNetwork.node[7].veinsmobility speed ETV
vector 36 pavillonsNetwork.node[8].veinsmobility posx ETV
vector 37 pavillonsNetwork.node[8].veinsmobility posy ETV
vector 38 pavillonsNetwork.node[6].veinsmobility acceleration ETV
vector 39 pavillonsNetwork.node[6].veinsmobility co2emission ETV
vector 40 pavillonsNetwork.node[7].veinsmobility acceleration ETV
vector 41 pavillonsNetwork.node[7].veinsmobility co2emission ETV
vector 42 pavillonsNetwork.node[8].veinsmobility speed ETV
13	5	4	3.6201031488954
13	6	5	4.0733996277683
13	7	6	5.9100952127211
13	8	7	2.7097402464938
13	9	8	7.022525456912
13	10	9	7.9480601640895
13	11	10	4.1922365548939
13	13	11	3.9880823460144
12	5	4	2.3779299757211
12	6	5	1.8703885182505
12	7	6	2.2255486362148
12	8	7	0.53726640676637
12	9	8	2.0465621652314
12	10	9	1.9749580422416
12	11	10	0.68767222616481
12	13	11	0.58105162016582
9	4	3	1.652282136376
9	5	4	4.0302121120971
9	6	5	5.9006006303476
9	7	6	8.1261492665624
9	8	7	8.6634156733288
9	9	8	10.70997783856
9	10	9	12.684935880802
9	11	10	13.372608106967
9	13	11	13.953659727132
3	3	2	197.97174475385
3	4	3	199.23698142738
3	5	4	202.70014126759
3	6	5	207.76407688615
3	7	6	212.57701017963
3	8	7	213.97362996682
3	9	8	215.47994379492
3	10	9	220.53032859224
3	11	10	226.91233011375
3	13	11	230.27781706421
2	3	2	297.80879831187
2	4	3	296.74821961989
2	5	4	294.68658717357
2	6	5	291.65743124632
2	7	6	285.39555385236
2	8	7	276.85060446428
2	9	8	266.24847252035
2	10	9	254.68251793559
2	11	10	242.93301569814
2	13	11	229.58895232918
vector 43 pavillonsNetwork.node[9].veinsmobility posx ETV
vector 44 pavillonsNetwork.node[9].veinsmobility posy ETV
vector 45 pavillonsNetwork.node[8].veinsmobility acceleration ETV
vector 46 pavillonsNetwork.node[8].veinsmobility co2emission ETV
vector 47 pavillonsNetwork.node[10].veinsmobility posx ETV
vector 48 pavillonsNetwork.node[10].veinsmobility posy ETV
vector 49 pavillonsNetwork.node[11].veinsmobility posx ETV
vector 50 pavillonsNetwork.node[11].veinsmobility posy ETV
vector 51 pavillonsNetwork.node[9].veinsmobility speed ETV
vector 52 pavillonsNetwork.node[12].veinsmobility posx ETV
vector 53 pavillonsNetwork.node[12].veinsmobility posy ETV
vector 54 pavillonsNetwork.node[9].veinsmobility acceleration ETV
vector 55 pavillonsNetwork.node[9].veinsmobility co2emission ETV
vector 56 pavillonsNetwork.node[10].veinsmobility speed ETV
vector 57 pavillonsNetwork.node[11].veinsmobility speed ETV
vector 58 pavillonsNetwork.node[10].veinsmobility acceleration ETV
vector 59 pavillonsNetwork.node[10].veinsmobility co2emission ETV
vector 60 pavillonsNetwork.node[11].veinsmobility acceleration ETV
vector 61 pavillonsNetwork.node[11].veinsmobility co2emission ETV
vector 62 pavillonsNetwork.node[12].veinsmobility speed ETV
vector 63 pavillonsNetwork.node[13].veinsmobility posx ETV
vector 64 pavillonsNetwork.node[13].veinsmobility posy ETV
vector 65 pavillonsNetwork.node[12].veinsmobility acceleration ETV
vector 66 pavillonsNetwork.node[12].veinsmobility co2emission ETV
vector 67 pavillonsNetwork.node[14].veinsmobility posx ETV
vector 68 pavillonsNetwork.node[14].veinsmobility posy ETV
vector 69 pavillonsNetwork.node[15].veinsmobility posx ETV
vector 70 pavillonsNetwork.node[15].veinsmobility posy ETV
vector 71 pavillonsNetwork.node[13].veinsmobility speed ETV
vector 72 pavillonsNetwork.node[16].veinsmobility posx ETV
vector 73 pavillonsNetwork.node[16].veinsmobility posy ETV
vector 74 pavillonsNetwork.node[13].veinsmobility acceleration ETV
vector 75 pavillonsNetwork.node[13].veinsmobility co2emission ETV
vector 76 pavillonsNetwork.node[14].veinsmobility speed ETV
vector 77 pavillonsNetwork.node[15].veinsmobility speed ETV
vector 78 pavillonsNetwork.node[17].veinsmobility posx ETV
vector 79 pavillonsNetwork.node[17].veinsmobility posy ETV
vector 80 pavillonsNetwork.node[14].veinsmobility acceleration ETV
vector 81 pavillonsNetwork.node[14].veinsmobility co2emission ETV
vector 82 pavillonsNetwork.node[15].veinsmobility acceleration ETV
vector 83 pavillonsNetwork.node[15].veinsmobility co2emission ETV
vector 84 pavillonsNetwork.node[16].veinsmobility speed ETV
vector 85 pavillonsNetwork.node[18].veinsmobility posx ETV
vector 86 pavillonsNetwork.node[18].veinsmobility posy ETV
vector 87 pavillonsNetwork.node[16].veinsmobility acceleration ETV
vector 88 pavillonsNetwork.node[16].veinsmobility co2emission ETV
vector 89 pavillonsNetwork.node[17].veinsmobility speed ETV
vector 90 pavillonsNetwork.node[17].veinsmobility acceleration ETV
vector 91 pavillonsNetwork.node[17].veinsmobility co2emission ETV
vector 92 pavillonsNetwork.node[18].veinsmobility speed ETV
vector 93 pavillonsNetwork.node[19].veinsmobility posx ETV
vector 94 pavillonsNetwork.node[19].veinsmobility posy ETV
vector 95 pavillonsNetwork.node[18].veinsmobility acceleration ETV
vector 96 pavillonsNetwork.node[18].veinsmobility co2emission ETV
vector 97 pavillonsNetwork.node[19].veinsmobility speed ETV
66	18	16	3.1936024092487
66	19	17	3.5202654900138
66	20	18	6.2824439578839
66	21	19	4.4666647815037
66	22	20	7.731900576138
66	23	21	9.5775818671438
66	24	22	6.8831753538025
66	26	23	11.141351210283
65	18	16	2.2172360560158
65	19	17	1.6906343355775
65	20	18	2.5312889968278
65	21	19	1.3001725175185
65	22	20	2.1872653045459
65	23	21	2.3139125195099
65	24	22	1.3208659525029
65	26	23	2.1306267366046
62	17	15	1.3519775079098
62	18	16	3.5692135639256
62	19	17	5.2598478995031
62	20	18	7.7911368963309
62	21	19	9.0913094138494
62	22	20	11.278574718395
62	23	21	13.592487237905
62	24	22	14.913353190408
62	26	23	17.043979927013
53	16	14	145.34641003346
53	17	15	146.60465309396
53	18	16	149.92640820599
53	19	17	154.82158366573
53	20	18	162.07255039844
53	21	19	170.62491160883
53	22	20	181.44843482159
53	23	21	194.79843288918
53	24	22	209.6895782733
53	26	23	226.70232794191
52	16	14	185.02527025822
52	17	15	184.53094228386
52	18	16	183.22591901182
52	19	17	181.30274355781
52	20	18	178.45404459843
52	21	19	175.37967680864
52	22	20	172.21967416538
52	23	21	170.15578797271
52	24	22	169.36554476825
52	26	23	169.47734194442
vector 98 pavillonsNetwork.node[19].veinsmobility acceleration ETV
vector 99 pavillonsNetwork.node[19].veinsmobility co2emission ETV
39	11	10	2.5285372233058
39	13	11	2.9954551759172
39	14	12	4.887483648004
39	15	13	6.4079551971147
39	16	14	5.0022647363182
39	17	15	6.1202318975994
39	18	16	0.973
39	19	17	0.973
39	20	18	0.973
39	21	19	0.973
39	22	20	0.973
39	23	21	1.1115077859542
39	24	22	1.1118707872226
39	26	23	0.973
39	27	24	0.973
39	28	25	2.4837767305532
39	29	26	4.302986161173
39	30	27	3.8445389463735
39	31	28	6.1996690514565
39	32	29	1.7736100089627
39	33	30	0.973
39	34	31	3.2240940342076
39	35	32	1.5807387471064
39	36	33	6.9581905390254
38	11	10	1.6439835200086
38	13	11	1.471595842368
38	14	12	2.1016049905447
38	15	13	2.2179987480631
38	16	14	1.326706381212
38	17	15	1.5067398780491
38	18	16	-2.5453642271456
38	19	17	-3.5818645827589
38	20	18	-3.434246940352
38	21	19	-1.9563585760635
38	22	20	-0.15443249477907
38	23	21	-0.083690233539428
38	24	22	-0.012376799058443
38	26	23	-0.041336650345946
38	27	24	0
38	28	25	2.2885861576768
38	29	26	2.5366576599656
38	30	27	1.5609465687769
38	31	28	2.2241574415937
38	32	29	0.087419197001166
38	33	30	-3.7289612888009
38	34	31	1.2058855284361
38	35	32	0.096240787347778
38	36	33	2.5280241468223
34	10	9	1.5410411437973
34	11	10	3.185024663806
34	13	11	4.6566205061739
34	14	12	6.7582254967187
34	15	13	8.9762242447818
34	16	14	10.302930625994
34	17	15	11.809670504043
34	18	16	9.2643062768973
34	19	17	5.6824416941384
34	20	18	2.2481947537864
34	21	19	0.29183617772288
34	22	20	0.13740368294382
34	23	21	0.053713449404389
34	24	22	0.041336650345946
34	26	23	0
34	27	24	0
34	28	25	2.2885861576768
34	29	26	4.8252438176423
34	30	27	6.3861903864192
34	31	28	8.6103478280129
34	32	29	8.6977670250141
34	33	30	4.9688057362131
34	34	31	6.1746912646493
34	35	32	6.2709320519971
34	36	33	8.7989561988193
28	9	8	213.80729378334
28	10	9	214.02403480928
28	11	10	214.47199527813
28	13	11	215.12692958018
28	14	12	216.86981953479
28	15	13	220.78783174931
28	16	14	225.70484706937
28	17	15	229.63349714633
28	18	16	230.91057117398
28	19	17	231.69388926432
28	20	18	232.00380034059
28	21	19	232.04402962401
28	22	20	232.0629705646
28	23	21	232.07037490218
28	24	22	232.07607311217
28	26	23	232.07607311217
28	27	24	232.07607311217
28	28	25	232.41254717526
28	29	26	233.19842395684
28	30	27	234.47042463559
28	31	28	236.42551196038
28	32	29	238.41803589997
28	33	30	239.55631246591
28	34	31	239.69597987138
28	35	32	234.17350826674
28	36	33	225.40690117159
27	9	8	278.02135529419
27	10	9	276.49583191927
27	11	10	273.34287938852
27	13	11	268.73314949333
27	14	12	262.28106563893
27	15	13	254.20844504327
27	16	14	245.15603690612
27	17	15	234.21782843764
27	18	16	225.04316645489
27	19	17	219.41570982488
27	20	18	217.18926929918
27	21	19	216.90025701862
27	22	20	216.76418289623
27	23	21	216.71098919478
27	24	22	216.67005253065
27	26	23	216.67005253065
27	27	24	216.67005253065
27	28	25	214.40600167873
27	29	26	209.64468659923
27	30	27	203.38611645242
27	31	28	195.00141954884
27	32	29	186.53605015349
27	33	30	181.70000707602
27	34	31	175.68161546192
27	35	32	173.38393987701
27	36	33	172.5752122852
55	16	14	2.4001336467644
55	17	15	4.207176283976
55	18	16	5.3469894195117
55	19	17	7.6671633688224
55	20	18	5.9159056718841
55	21	19	0.973
55	22	20	0.973
55	23	21	0.973
55	24	22	4.2605646870497
55	26	23	8.0553248300466
55	27	24	0.973
55	28	25	0.973
55	29	26	0.973
55	30	27	0.973
55	31	28	1.3234473918654
55	32	29	2.2619670740102
55	33	30	3.8800106577275
55	34	31	0.973
55	35	32	3.3009725802225
55	36	33	0.973
55	37	34	0.973
55	38	35	0.973
55	39	36	0.973
55	40	37	1.1106843822642
55	41	38	1.1100266035491
55	42	39	1.6103261511262
55	43	40	3.7317616863521
55	45	41	3.1122156915767
55	46	42	5.7961034384122
55	47	43	7.3731911338249
54	16	14	1.5593118736753
54	17	15	2.229622244928
54	18	16	2.1495511898538
54	19	17	2.5047667042818
54	20	18	1.4965369990095
54	21	19	-2.341802702141
54	22	20	-0.76716438559768
54	23	21	-0.72970146633708
54	24	22	1.2506499953861
54	26	23	2.3337821516218
54	27	24	-0.91676388354421
54	28	25	-4.5
54	29	26	-1.523710369982
54	30	27	-3.540044350865
54	31	28	0.52996057485367
54	32	29	1.5361829237068
54	33	30	2.1413279505366
54	34	31	-0.61743980137167
54	35	32	1.392439330183
54	36	33	-2.2305414787263
54	37	34	-2.7053342227146
54	38	35	-0.55694559284865
54	39	36	-0.13231222356421
54	40	37	-0.023416870960456
54	41	38	-0.01546893795833
54	42	39	1.3435946372803
54	43	40	2.5718988770619
54	45	41	1.3629213256994
54	46	42	2.3323004034348
54	47	43	2.3663311781362
51	15	13	1.4771120201563
51	16	14	3.0364238938317
51	17	15	5.2660461387597
51	18	16	7.4155973286135
51	19	17	9.9203640328953
51	20	18	11.416901031905
51	21	19	9.0750983297639
51	22	20	8.3079339441662
51	23	21	7.5782324778291
51	24	22	8.8288824732152
51	26	23	11.162664624837
51	27	24	10.245900741293
51	28	25	5.7459007412929
51	29	26	4.2221903713108
51	30	27	0.6821460204458
51	31	28	1.2121065952995
51	32	29	2.7482895190063
51	33	30	4.8896174695429
51	34	31	4.2721776681712
51	35	32	5.6646169983542
51	36	33	3.4340755196279
51	37	34	0.72874129691329
51	38	35	0.17179570406464
51	39	36	0.03948348050043
51	40	37	0.016066609539975
51	41	38	0.00059767158164508
51	42	39	1.344192308862
51	43	40	3.9160911859239
51	45	41	5.2790125116233
51	46	42	7.6113129150581
51	47	43	9.9776440931943
44	14	12	181.30828581826
44	15	13	181.78802950712
44	16	14	182.77421415655
44	17	15	184.48454645758
44	18	16	186.8930205401
44	19	17	191.79677214253
44	20	18	200.49169838291
44	21	19	208.28105263175
44	22	20	212.74642247215
44	23	21	213.93158380568
44	24	22	215.17332939625
44	26	23	218.89746154376
44	27	24	223.65321677635
44	28	25	226.39541537965
44	29	26	228.41043183405
44	30	27	228.73598216092
44	31	28	229.04815831094
44	32	29	229.42700687879
44	33	30	230.10103505628
44	34	31	230.68994986311
44	35	32	231.47081083952
44	36	33	231.94419422345
44	37	34	232.044650378
44	38	35	232.06833221938
44	39	36	232.07377497202
44	40	37	232.07598973578
44	41	38	232.07607212412
44	42	39	232.27329868231
44	43	40	232.88310702213
44	45	41	233.84533383964
44	46	42	235.51839069626
44	47	43	237.80411468256
43	14	12	328.07365159372
43	15	13	326.67668082728
43	16	14	323.80499922404
43	17	15	318.82466434747
43	18	16	311.81140296822
43	19	17	303.34766111508
43	20	18	296.00128176376
43	21	19	291.3441897847
43	22	20	284.62755145958
43	23	21	277.14654475231
43	24	22	268.40656617258
43	26	23	258.00357427754
43	27	24	248.93316460453
43	28	25	243.88467495495
43	29	26	240.1749546956
43	30	27	239.57560443204
43	31	28	238.42297695984
43	32	29	235.70128074061
43	33	30	230.85897672268
43	34	31	226.62813796755
43	35	32	221.01833355605
43	36	33	217.61748721375
43	37	34	216.89579744311
43	38	35	216.72566408744
43	39	36	216.68656266131
43	40	37	216.67065151726
43	41	38	216.67005962893
43	42	39	215.34023247686
43	43	40	211.47152280831
43	45	41	206.28040116017
43	46	42	198.85538407824
43	47	43	189.14433494329
33	10	9	2.816119742767
33	11	10	3.0225882076596
33	13	11	3.2033605787546
33	14	12	1.6424861525357
33	15	13	2.5068015464393
33	16	14	7.2428980220025
33	17	15	0.973
33	18	16	0.973
33	19	17	0.973
33	20	18	1.111688330748
33	21	19	1.1100579692311
33	22	20	0.973
33	23	21	0.973
33	24	22	0.973
33	26	23	0.973
33	27	24	0.973
33	28	25	0.973
33	29	26	0.973
33	30	27	0.973
33	31	28	0.973
33	32	29	0.973
33	33	30	0.973
33	34	31	0.973
33	35	32	0.973
33	36	33	0.973
33	37	34	0.973
33	38	35	0.973
33	39	36	0.973
33	40	37	0.973
33	41	38	0.973
33	42	39	0.973
33	43	40	0.973
33	45	41	0.973
33	46	42	0.973
33	47	43	0.973
33	48	44	0.973
33	49	45	2.4466190782805
33	50	46	1.9206396959855
33	51	47	4.972696024313
33	52	48	4.3449201850602
32	10	9	1.7301737446804
32	11	10	1.3689486144111
32	13	11	1.1837078221396
32	14	12	0.13274138835259
32	15	13	0.61432733004913
32	16	14	2.4662108094199
32	17	15	-4.1506748725044
32	18	16	-4.2130068476856
32	19	17	-1.0006019770859
32	20	18	-0.020374240861718
32	21	19	-0.037485937862931
32	22	20	-0.0014785847811967
32	23	21	0
32	24	22	0
32	26	23	0
32	27	24	0
32	28	25	0
32	29	26	0
32	30	27	0
32	31	28	0
32	32	29	0
32	33	30	0
32	34	31	0
32	35	32	0
32	36	33	0
32	37	34	0
32	38	35	0
32	39	36	0
32	40	37	0
32	41	38	0
32	42	39	0
32	43	40	0
32	45	41	0
32	46	42	0
32	47	43	0
32	48	44	0
32	49	45	2.256132593425
32	50	46	0.87153451495249
32	51	47	2.5903387362603
32	52	48	1.6107781668426
31	9	8	1.9275127517292
31	10	9	3.6576864964096
31	11	10	5.0266351108206
31	13	11	6.2103429329603
31	14	12	6.3430843213129
31	15	13	6.957411651362
31	16	14	9.4236224607819
31	17	15	5.2729475882774
31	18	16	1.0599407405918
31	19	17	0.059338763505846
31	20	18	0.038964522644127
31	21	19	0.0014785847811967
31	22	20	0
31	23	21	0
31	24	22	0
31	26	23	0
31	27	24	0
31	28	25	0
31	29	26	0
31	30	27	0
31	31	28	0
31	32	29	0
31	33	30	0
31	34	31	0
31	35	32	0
31	36	33	0
31	37	34	0
31	38	35	0
31	39	36	0
31	40	37	0
31	41	38	0
31	42	39	0
31	43	40	0
31	45	41	0
31	46	42	0
31	47	43	0
31	48	44	0
31	49	45	2.256132593425
31	50	46	3.1276671083775
31	51	47	5.7180058446378
31	52	48	7.3287840114804
24	8	7	227.3675
24	9	8	229.286509019
24	10	9	232.92805866322
24	11	10	237.88461375213
24	13	11	242.71981317428
24	14	12	243.13760382698
24	15	13	241.55858719049
24	16	14	239.40390873033
24	17	15	238.19826762605
24	18	16	237.9559158667
24	19	17	237.94234826506
24	20	18	237.93343916264
24	21	19	237.93310108938
24	22	20	237.93310108938
24	23	21	237.93310108938
24	24	22	237.93310108938
24	26	23	237.93310108938
24	27	24	237.93310108938
24	28	25	237.93310108938
24	29	26	237.93310108938
24	30	27	237.93310108938
24	31	28	237.93310108938
24	32	29	237.93310108938
24	33	30	237.93310108938
24	34	31	237.93310108938
24	35	32	237.93310108938
24	36	33	237.93310108938
24	37	34	237.93310108938
24	38	35	237.93310108938
24	39	36	237.93310108938
24	40	37	237.93310108938
24	41	38	237.93310108938
24	42	39	237.93310108938
24	43	40	237.93310108938
24	45	41	237.93310108938
24	46	42	237.93310108938
24	47	43	237.93310108938
24	48	44	237.93310108938
24	49	45	236.15948084697
24	50	46	234.93037513049
24	51	47	236.24028185705
24	52	48	237.91919295561
23	8	7	169.53875
23	9	8	169.7159110985
23	10	9	170.05209551913
23	11	10	170.81065403036
23	13	11	174.17966210299
23	14	12	180.3755358679
23	15	13	187.14904073321
23	16	14	196.32087126666
23	17	15	201.45292976038
23	18	16	202.4845497015
23	19	17	202.54230297899
23	20	18	202.58022639963
23	21	19	202.58166547777
23	22	20	202.58166547777
23	23	21	202.58166547777
23	24	22	202.58166547777
23	26	23	202.58166547777
23	27	24	202.58166547777
23	28	25	202.58166547777
23	29	26	202.58166547777
23	30	27	202.58166547777
23	31	28	202.58166547777
23	32	29	202.58166547777
23	33	30	202.58166547777
23	34	31	202.58166547777
23	35	32	202.58166547777
23	36	33	202.58166547777
23	37	34	202.58166547777
23	38	35	202.58166547777
23	39	36	202.58166547777
23	40	37	202.58166547777
23	41	38	202.58166547777
23	42	39	202.58166547777
23	43	40	202.58166547777
23	45	41	202.58166547777
23	46	42	202.58166547777
23	47	43	202.58166547777
23	48	44	202.58166547777
23	49	45	203.83667703694
23	50	46	201.35360699818
23	51	47	195.78838186161
23	52	48	188.65541730905
18	6	5	3.0300388559467
18	7	6	4.9925385572515
18	8	7	6.8695389405201
18	9	8	5.7149944116614
18	10	9	7.0023852808265
18	11	10	0.973
18	13	11	0.973
18	14	12	0.973
18	15	13	1.3299359544724
18	16	14	0.973
18	17	15	2.663469609425
18	18	16	4.9372426181883
18	19	17	4.642310013281
18	20	18	5.6853513457745
18	21	19	7.9162076975895
18	22	20	0.973
18	23	21	0.973
18	24	22	0.973
18	26	23	0.973
18	27	24	0.973
18	28	25	0.973
18	29	26	1.8349571115211
18	30	27	3.4794632277854
18	31	28	5.0117829535573
18	32	29	4.8563433994524
18	33	30	2.8213531440514
18	34	31	0.973
18	35	32	0.973
18	36	33	0.973
18	37	34	0.973
18	38	35	0.973
18	39	36	3.821143030998
18	40	37	0.973
18	41	38	0.973
18	42	39	1.110019827388
18	43	40	1.1100104475902
18	45	41	1.1100082775642
18	46	42	0.973
18	47	43	0.973
18	48	44	0.973
18	49	45	0.973
18	50	46	0.973
18	51	47	1.9277018941902
18	52	48	2.3346193589682
18	53	49	2.7398319860321
17	6	5	2.0376957817236
17	7	6	2.4637650594814
17	8	7	2.558692760556
17	9	8	1.6319673717255
17	10	9	1.7837943455437
17	11	10	-0.25813085805749
17	13	11	-4.0367676791735
17	14	12	-4.3876154728001
17	15	13	0.065945463334189
17	16	14	-0.89416070687585
17	17	15	1.4388473483967
17	18	16	2.327370282216
17	19	17	1.6356240580324
17	20	18	1.7379136861069
17	21	19	2.1469145164359
17	22	20	-0.85163916311476
17	23	21	-3.4343528641046
17	24	22	-3.9412912295556
17	26	23	-3.2590734914318
17	27	24	-0.11150151912543
17	28	25	-0.1554272648541
17	29	26	1.6296987319401
17	30	27	2.2922844473273
17	31	28	2.357463922305
17	32	29	1.7162051725201
17	33	30	0.59661880330542
17	34	31	-2.6033356770917
17	35	32	-0.31340552245478
17	36	33	-1.0663675545796
17	37	34	-1.1570432987572
17	38	35	-0.42061519110575
17	39	36	2.0138568457917
17	40	37	-3.7283900031897
17	41	38	-1.3276391508931
17	42	39	-0.0021915889743225
17	43	40	-0.00019877493700132
17	45	41	-4.5160516025249e-05
17	46	42	-0.00017163002013346
17	47	43	0
17	48	44	0
17	49	45	0
17	50	46	0
17	51	47	1.7440799587034
17	52	48	1.4080703722546
17	53	49	1.3083557586884
14	5	4	1.5147052048706
14	6	5	3.5524009865941
14	7	6	6.0161660460755
14	8	7	8.5748588066315
14	9	8	10.206826178357
14	10	9	11.990620523901
14	11	10	11.732489665843
14	13	11	7.6957219866697
14	14	12	3.3081065138696
14	15	13	3.3740519772038
14	16	14	2.479891270328
14	17	15	3.9187386187246
14	18	16	6.2461089009406
14	19	17	7.8817329589731
14	20	18	9.61964664508
14	21	19	11.766561161516
14	22	20	10.914921998401
14	23	21	7.4805691342965
14	24	22	3.539277904741
14	26	23	0.28020441330915
14	27	24	0.16870289418371
14	28	25	0.013275629329616
14	29	26	1.6429743612697
14	30	27	3.935258808597
14	31	28	6.292722730902
14	32	29	8.0089279034221
14	33	30	8.6055467067275
14	34	31	6.0022110296359
14	35	32	5.6888055071811
14	36	33	4.6224379526015
14	37	34	3.4653946538443
14	38	35	3.0447794627386
14	39	36	5.0586363085302
14	40	37	1.3302463053405
14	41	38	0.0026071544474825
14	42	39	0.00041556547316003
14	43	40	0.00021679053615871
14	45	41	0.00017163002013346
14	46	42	0
14	47	43	0
14	48	44	0
14	49	45	0
14	50	46	0
14	51	47	1.7440799587034
14	52	48	3.1521503309579
14	53	49	4.4605060896464
6	4	3	234.55468117897
6	5	4	234.3452007693
6	6	5	233.85391149956
6	7	6	233.02188892255
6	8	7	231.38553293674
6	9	8	226.5180047533
6	10	9	221.01718257856
6	11	10	217.87238425889
6	13	11	216.79074776066
6	14	12	216.32579219813
6	15	13	213.98342498322
6	16	14	213.19067979992
6	17	15	213.74183408418
6	18	16	214.62032331648
6	19	17	215.8083220326
6	20	18	219.92825874376
6	21	19	225.52757979671
6	22	20	229.45895461392
6	23	21	230.49014251595
6	24	22	230.97802792838
6	26	23	231.01665378637
6	27	24	231.03990928744
6	28	25	231.04173931777
6	29	26	231.26822145493
6	30	27	231.81069238219
6	31	28	232.73124367702
6	32	29	234.22633954454
6	33	30	236.16702943223
6	34	31	237.54204317227
6	35	32	238.84526055302
6	36	33	239.90418961531
6	37	34	242.42036373879
6	38	35	242.82483954613
6	39	36	241.66819996967
6	40	37	241.36404378422
6	41	38	241.36344766743
6	42	39	241.36335264983
6	43	40	241.36330308143
6	45	41	241.36326383883
6	46	42	241.36326383883
6	47	43	241.36326383883
6	48	44	241.36326383883
6	49	45	241.36326383883
6	50	46	241.36326383883
6	51	47	240.96448602961
6	52	48	240.24375783304
6	53	49	239.22387864829
5	4	3	222.06043106416
5	5	4	223.5604142445
5	6	5	227.07828802784
5	7	6	233.03598055455
5	8	7	241.37923215944
5	9	8	250.34939124035
5	10	9	260.99757092371
5	11	10	272.16320652436
5	13	11	279.78168968578
5	14	12	283.05659408276
5	15	13	284.55403663211
5	16	14	282.36136910057
5	17	15	278.48209086902
5	18	16	272.29887819556
5	19	17	264.52038913671
5	20	18	255.82901580083
5	21	19	245.48239255013
5	22	20	235.47176415459
5	23	21	228.06357932192
5	24	22	224.55854856533
5	26	23	224.28105549663
5	27	24	224.11398502385
5	28	25	224.10083785362
5	29	26	222.47376142065
5	30	27	218.57658139396
5	31	28	212.35136599824
5	32	29	204.48299266406
5	33	30	196.09959962061
5	34	31	190.25776304249
5	35	32	184.72095803287
5	36	33	180.22202805886
5	37	34	178.93378401232
5	38	35	181.75897802395
5	39	36	186.6824514701
5	40	37	187.97715461967
5	41	38	187.97969211296
5	42	39	187.98009657484
5	43	40	187.9803075729
5	45	41	187.9804746171
5	46	42	187.9804746171
5	47	43	187.9804746171
5	48	44	187.9804746171
5	49	45	187.9804746171
5	50	46	187.9804746171
5	51	47	189.67795410384
5	52	48	192.745881408
5	53	49	197.08720621361
83	21	19	2.4380753058703
83	22	20	5.0718523552001
83	23	21	6.2236360763797
83	24	22	8.2360528046975
83	26	23	0.973
83	27	24	0.973
83	28	25	0.973
83	29	26	0.973
83	30	27	1.4331016189701
83	31	28	2.5198442588908
83	32	29	3.5930386378455
83	33	30	1.6850517951304
83	34	31	4.546948450677
83	35	32	7.474314236884
83	36	33	0.973
83	37	34	0.973
83	38	35	0.973
83	39	36	2.0427928385048
83	40	37	2.8120690469383
83	41	38	1.3385640152448
83	42	39	4.1559529120774
83	43	40	5.1335966656391
83	45	41	5.660046887094
83	46	42	6.7175775330802
83	47	43	9.5519509268595
83	48	44	0.973
83	49	45	0.973
83	50	46	0.973
83	51	47	0.973
83	52	48	0.973
83	53	49	1.6885993594531
82	21	19	1.4845834727632
82	22	20	2.5936228751438
82	23	21	2.3572174035013
82	24	22	2.5123967804946
82	26	23	-0.86215273989657
82	27	24	-3.8255139494131
82	28	25	-1.8488927595644
82	29	26	-4.1768529294772
82	30	27	1.0549498353077
82	31	28	1.8214075746248
82	32	29	1.9292065371992
82	33	30	0.25981912214423
82	34	31	1.8422121651471
82	35	32	2.5530080158263
82	36	33	-1.9083045742346
82	37	34	-2.1105947546835
82	38	35	-1.6814585495124
82	39	36	0.66449653445706
82	40	37	1.0704317748345
82	41	38	-0.038245117128827
82	42	39	1.5749046588317
82	43	40	1.6834606030956
82	45	41	1.5889868666884
82	46	42	1.6835226509487
82	47	43	2.1909199865069
82	48	44	-0.74636268805731
82	49	45	-2.9051322926254
82	50	46	-3.6357980239294
82	51	47	-2.8522839743108
82	52	48	-1.9242582004886
82	53	49	0.65852576447192
77	20	18	1.7784350621514
77	21	19	3.2630185349146
77	22	20	5.8566414100584
77	23	21	8.2138588135596
77	24	22	10.726255594054
77	26	23	9.8641028541577
77	27	24	6.0385889047445
77	28	25	4.1896961451801
77	29	26	0.012843215702953
77	30	27	1.0677930510107
77	31	28	2.8892006256355
77	32	29	4.8184071628347
77	33	30	5.0782262849789
77	34	31	6.920438450126
77	35	32	9.4734464659523
77	36	33	7.5651418917177
77	37	34	5.4545471370342
77	38	35	3.7730885875219
77	39	36	4.4375851219789
77	40	37	5.5080168968134
77	41	38	5.4697717796846
77	42	39	7.0446764385162
77	43	40	8.7281370416118
77	45	41	10.3171239083
77	46	42	12.000646559249
77	47	43	14.191566545756
77	48	44	13.445203857698
77	49	45	10.540071565073
77	50	46	6.9042735411437
77	51	47	4.0519895668329
77	52	48	2.1277313663443
77	53	49	2.7862571308162
70	19	17	213.80729378334
70	20	18	214.05742327631
70	21	19	214.51635325867
70	22	20	215.34006550861
70	23	21	218.14226804562
70	24	22	223.04093728581
70	26	23	227.7485245358
70	27	24	229.42826280443
70	28	25	230.00580762762
70	29	26	230.00757805022
70	30	27	230.15477210141
70	31	28	230.5530451042
70	32	29	231.21725702233
70	33	30	231.91728470937
70	34	31	232.96956956259
70	35	32	234.85207104545
70	36	33	236.58512807977
70	37	34	237.83468049005
70	38	35	238.69903674554
70	39	36	239.71561888255
70	40	37	239.68628509296
70	41	38	234.94309859839
70	42	39	227.9243217056
70	43	40	219.22636611036
70	45	41	208.92377656511
70	46	42	196.940651692
70	47	43	182.95604333916
70	48	44	170.0736850845
70	49	45	160.20128701152
70	50	46	153.77565250157
70	51	47	150.00456726872
70	52	48	148.02434096193
70	53	49	145.43124121484
69	19	17	278.02135529419
69	20	18	276.26082847827
69	21	19	273.03066744861
69	22	20	267.23300045866
69	23	21	259.59672220514
69	24	22	250.0603939259
69	26	23	241.39355065731
69	27	24	235.69225801138
69	28	25	231.5431026625
69	29	26	231.53038372172
69	30	27	230.47292296668
69	31	28	227.61167914029
69	32	29	222.8398963761
69	33	30	217.81080858
69	34	31	210.97058904214
69	35	32	201.68628706886
69	36	33	194.32327993641
69	37	34	189.01447409388
69	38	35	185.34219952468
69	39	36	181.02318325616
69	40	37	175.65455690124
69	41	38	173.45493529505
69	42	39	172.80744665181
69	43	40	172.08
69	45	41	172.60478634319
69	46	42	173.24013323244
69	47	43	175.11504803716
69	48	44	178.94952698687
69	49	45	182.63172915882
69	50	46	185.1565518208
69	51	47	186.63832322273
69	52	48	187.41641295807
69	53	49	188.43531887251
96	24	22	3.3332884406119
96	26	23	4.742284265751
96	27	24	4.1130257692691
96	28	25	7.6131312155861
96	29	26	8.9162155236292
96	30	27	1.6268701638253
96	31	28	0.973
96	32	29	1.8627883423048
96	33	30	5.300832668468
96	34	31	0.973
96	35	32	1.3678356969009
96	36	33	2.3116905820923
96	37	34	1.6608014881423
96	38	35	0.973
96	39	36	0.973
96	40	37	1.7917859291329
96	41	38	2.261635351641
96	42	39	5.518769367167
96	43	40	0.973
96	45	41	0.973
96	46	42	0.973
96	47	43	0.973
96	48	44	5.2106878737249
96	49	45	7.0834524738804
96	50	46	7.0814901276879
96	51	47	8.5826131737884
96	52	48	9.9708625682989
96	53	49	0.973
96	54	50	0.973
96	55	51	5.9887063211401
95	24	22	1.9916415248066
95	26	23	2.1567973947851
95	27	24	1.3868436365854
95	28	25	2.4170442613075
95	29	26	2.3333638548153
95	30	27	-0.086236337869726
95	31	28	-0.52056064405478
95	32	29	0.008302200702019
95	33	30	1.0763229213422
95	34	31	-0.51985572420526
95	35	32	-0.1708022775827
95	36	33	0.14219819458667
95	37	34	-0.073472893727013
95	38	35	-2.4658408762178
95	39	36	-3.337038680492
95	40	37	0.20181912881962
95	41	38	0.44466981454752
95	42	39	1.8031093417434
95	43	40	-1.1106258030407
95	45	41	-2.5380776226297
95	46	42	-0.28021158466581
95	47	43	-0.33173692431301
95	48	44	2.2265032557305
95	49	45	2.4114399921848
95	50	46	1.941332142381
95	51	47	2.0517145487946
95	52	48	2.0879193186993
95	53	49	-3.2876458191288
95	54	50	-3.3979654331898
95	55	51	1.6934566958109
92	23	21	2.2044131760718
92	24	22	4.1960547008784
92	26	23	6.3528520956635
92	27	24	7.7396957322489
92	28	25	10.156739993556
92	29	26	12.490103848372
92	30	27	12.403867510502
92	31	28	11.883306866447
92	32	29	11.891609067149
92	33	30	12.967931988491
92	34	31	12.448076264286
92	35	32	12.277273986703
92	36	33	12.41947218129
92	37	34	12.345999287563
92	38	35	9.8801584113453
92	39	36	6.5431197308533
92	40	37	6.744938859673
92	41	38	7.1896086742205
92	42	39	8.9927180159639
92	43	40	7.8820922129232
92	45	41	5.3440145902934
92	46	42	5.0638030056276
92	47	43	4.7320660813146
92	48	44	6.9585693370451
92	49	45	9.3700093292299
92	50	46	11.311341471611
92	51	47	13.363056020405
92	52	48	15.450975339105
92	53	49	12.163329519976
92	54	50	8.7653640867862
92	55	51	10.458820782597
86	22	20	225.60431093681
86	23	21	227.75871891774
86	24	22	231.85958976813
86	26	23	238.06833294075
86	27	24	245.67955070229
86	28	25	255.75559455539
86	29	26	268.15982456399
86	30	27	276.38190962467
86	31	28	278.3672769608
86	32	29	279.27952781425
86	33	30	280.27434751923
86	34	31	281.25970749187
86	35	32	274.38462183425
86	36	33	266.91499751648
86	37	34	255.04330571665
86	38	35	245.52587236134
86	39	36	239.33410183684
86	40	37	234.92969201349
86	41	38	235.2402020597
86	42	39	237.30029471075
86	43	40	239.10596016294
86	45	41	240.13735276118
86	46	42	238.08308293491
86	47	43	233.44780399901
86	48	44	226.51481763747
86	49	45	217.17226208698
86	50	46	205.87743587346
86	51	47	192.53389074127
86	52	48	177.49774200506
86	53	49	165.92431689707
86	54	50	157.76661201579
86	55	51	148.03284938986
85	22	20	290.85928889175
85	23	21	291.32579843171
85	24	22	292.21378965285
85	26	23	293.55821371124
85	27	24	294.92107066986
85	28	25	296.19607966555
85	29	26	296.53163837402
85	30	27	288.525204554
85	31	28	276.93760113192
85	32	29	265.08144293114
85	33	30	252.15217050683
85	34	31	239.74360760033
85	35	32	229.78805033109
85	36	33	219.86648562092
85	37	34	216.52263516392
85	38	35	213.8713501578
85	39	36	211.79908345038
85	40	37	207.08909657292
85	41	38	200.03728685153
85	42	39	191.28484732833
85	43	40	183.61335854291
85	45	41	178.38044324647
85	46	42	174.15561964286
85	47	43	173.31699298884
85	48	44	172.67741860124
85	49	45	172.16745053364
85	50	46	172.76630373557
85	51	47	173.47378028956
85	52	48	176.65835153287
85	53	49	180.3829807235
85	54	50	183.5883852827
85	55	51	187.41306974401
26	8	7	3.7960737624968
26	9	8	4.0266963401678
26	10	9	4.5841510642487
26	11	10	4.5609280926869
26	13	11	5.5962972852863
26	14	12	6.4130598924778
26	15	13	0.973
26	16	14	1.9771713292363
26	17	15	4.5871666187564
26	18	16	0.973
26	19	17	0.973
26	20	18	4.6192036537142
26	21	19	0.973
26	22	20	2.6991311869988
26	23	21	1.2655205492693
26	24	22	0.973
26	26	23	0.973
26	27	24	4.4121688750063
26	28	25	0.973
26	29	26	6.7286998367468
26	30	27	7.9578822757794
26	31	28	0.973
26	32	29	0.973
26	33	30	0.973
26	34	31	1.7710492813943
26	35	32	0.973
26	36	33	5.433167249212
26	37	34	0.973
26	38	35	0.973
26	39	36	0.973
26	40	37	0.973
26	41	38	1.1115028950379
26	42	39	1.110097029926
26	43	40	1.3746255903114
26	45	41	2.5951841260882
26	46	42	4.5897820182316
26	47	43	4.3630184216354
26	48	44	7.5123873229024
26	49	45	3.324118287034
26	50	46	0.973
26	51	47	1.7123741783476
26	52	48	0.973
26	53	49	0.973
26	54	50	6.0836946027062
26	55	51	5.6394157559388
26	56	52	7.4110880665452
26	58	53	7.3041133290024
26	59	54	8.6361717955653
26	60	55	8.7536352554992
25	8	7	2.4860693038907
25	9	8	1.8179015217815
25	10	9	1.6681086091325
25	11	10	1.3621651400579
25	13	11	1.5278135258239
25	14	12	1.5653918677013
25	15	13	-0.93583106496371
25	16	14	0.072389675839805
25	17	15	0.93096727179363
25	18	16	-0.35357937463559
25	19	17	-0.72575699992012
25	20	18	0.95541212097742
25	21	19	-0.39238893790171
25	22	20	0.29801617639605
25	23	21	-0.19791673840955
25	24	22	-3.0626328171506
25	26	23	-4.3188968895236
25	27	24	1.9570178572088
25	28	25	-0.29462389160193
25	29	26	2.5081663131015
25	30	27	2.3647261574632
25	31	28	-0.85880774746237
25	32	29	-3.6472411826629
25	33	30	-2.1957468365898
25	34	31	0.39135842599834
25	35	32	-0.45748552192668
25	36	33	2.4956132286537
25	37	34	-2.9404247521379
25	38	35	-2.1060563445548
25	39	36	-1.3923779659851
25	40	37	-0.14189432119129
25	41	38	-0.0010739266700965
25	42	39	-0.028970751088193
25	43	40	0.95111076085986
25	45	41	1.9322179848561
25	46	42	2.4798515100032
25	47	43	1.6930251182523
25	48	44	2.5339947584318
25	49	45	0.65601230412463
25	50	46	-3.7257956637535
25	51	47	0.15692186424353
25	52	48	-0.17453330901917
25	53	49	-0.75421165260486
25	54	50	2.3290013018763
25	55	51	1.6874481278472
25	56	52	1.973814623151
25	58	53	1.6503413632512
25	59	54	1.7712771047372
25	60	55	1.5859555665636
22	7	6	1.652940650261
22	8	7	4.1390099541517
22	9	8	5.9569114759332
22	10	9	7.6250200850656
22	11	10	8.9871852251235
22	13	11	10.514998750947
22	14	12	12.080390618649
22	15	13	11.144559553685
22	16	14	11.216949229525
22	17	15	12.147916501318
22	18	16	11.794337126683
22	19	17	11.068580126763
22	20	18	12.02399224774
22	21	19	11.631603309838
22	22	20	11.929619486234
22	23	21	11.731702747825
22	24	22	8.6690699306743
22	26	23	4.3501730411507
22	27	24	6.3071908983595
22	28	25	6.0125670067576
22	29	26	8.5207333198592
22	30	27	10.885459477322
22	31	28	10.02665172986
22	32	29	6.3794105471971
22	33	30	4.1836637106073
22	34	31	4.5750221366056
22	35	32	4.1175366146789
22	36	33	6.6131498433326
22	37	34	3.6727250911948
22	38	35	1.56666874664
22	39	36	0.17429078065491
22	40	37	0.032396459463621
22	41	38	0.031322532793525
22	42	39	0.0023517817053315
22	43	40	0.95346254256519
22	45	41	2.8856805274213
22	46	42	5.3655320374245
22	47	43	7.0585571556768
22	48	44	9.5925519141086
22	49	45	10.248564218233
22	50	46	6.5227685544797
22	51	47	6.6796904187232
22	52	48	6.505157109704
22	53	49	5.7509454570992
22	54	50	8.0799467589754
22	55	51	9.7673948868226
22	56	52	11.741209509974
22	58	53	13.391550873225
22	59	54	15.162827977962
22	60	55	16.748783544526
16	6	5	247.4531831351
16	7	6	249.0455753167
16	8	7	253.03297019959
16	9	8	258.77167549387
16	10	9	266.11738531479
16	11	10	272.52730861526
16	13	11	278.85245322956
16	14	12	284.40694289639
16	15	13	283.52286849225
16	16	14	282.66210363128
16	17	15	281.7298983191
16	18	16	280.64128118393
16	19	17	275.6996323065
16	20	18	264.66303289732
16	21	19	253.11883363326
16	22	20	241.29377999023
16	23	21	229.8264008887
16	24	22	221.35265129841
16	26	23	217.21975082441
16	27	24	213.30896533843
16	28	25	213.33820024056
16	29	26	214.53660593464
16	30	27	216.83983923588
16	31	28	221.25573471722
16	32	29	224.30027228931
16	33	30	226.29690211297
16	34	31	228.48030553011
16	35	32	229.374818021
16	36	33	230.28643316556
16	37	34	230.79271412006
16	38	35	231.00867761548
16	39	36	231.03270340032
16	40	37	231.03716921521
16	41	38	231.04148699054
16	42	39	231.04181118096
16	43	40	231.17324490229
16	45	41	231.57103266356
16	46	42	232.32602857284
16	47	43	233.50470961449
16	48	44	235.56473754313
16	49	45	237.91252514109
16	50	46	239.40679056114
16	51	47	241.46254078917
16	52	48	246.76138951917
16	53	49	252.40583772352
16	54	50	260.17050918197
16	55	51	269.55678542406
16	56	52	280.83985907408
16	58	53	293.70887862972
16	59	54	308.17506019241
16	60	55	324.12297358688
15	6	5	211.08820452257
15	7	6	211.53164783105
15	8	7	212.64204236796
15	9	8	214.24013515658
15	10	9	216.28574044385
15	11	10	221.99339153013
15	13	11	230.39359939021
15	14	12	240.54080853922
15	15	13	251.65051408725
15	16	14	262.83468033445
15	17	15	274.94709298138
15	18	16	286.66244816556
15	19	17	296.48970047625
15	20	18	300.11361385087
15	21	19	299.08368495638
15	22	20	297.52388982086
15	23	21	295.04614472221
15	24	22	293.21523014891
15	26	23	291.89984899035
15	27	24	287.27741334609
15	28	25	281.32305215299
15	29	26	272.8881197677
15	30	27	262.34431174896
15	31	28	253.34701827146
15	32	29	247.74191133209
15	33	30	244.06604154398
15	34	31	240.04631462157
15	35	32	236.07621212216
15	36	33	229.527053163
15	37	34	225.88986649622
15	38	35	224.33835732114
15	39	36	224.16575303201
15	40	37	224.13367005071
15	41	38	224.10265060444
15	42	39	224.1003215793
15	43	40	223.15608503532
15	45	41	220.29832724559
15	46	42	214.98646284767
15	47	43	208.02670000457
15	48	44	198.65847644201
15	49	45	188.68374595891
15	50	46	182.3352607517
15	51	47	175.99693836316
15	52	48	172.63727812409
15	53	49	173.5682004234
15	54	50	175.80502048671
15	55	51	178.50898692373
15	56	52	181.75937628679
15	58	53	185.46663953563
15	59	54	190.00908395742
15	60	55	195.12962656229
8	4	3	2.9572775987046
8	5	4	5.4475378523348
8	6	5	6.1741223065018
8	7	6	6.0427391267003
8	8	7	9.3388311865557
8	9	8	11.610953549582
8	10	9	0.973
8	11	10	0.973
8	13	11	0.973
8	14	12	0.973
8	15	13	0.973
8	16	14	0.973
8	17	15	0.973
8	18	16	0.973
8	19	17	0.973
8	20	18	0.973
8	21	19	0.973
8	22	20	0.973
8	23	21	0.973
8	24	22	0.973
8	26	23	0.973
8	27	24	0.973
8	28	25	0.973
8	29	26	0.973
8	30	27	0.973
8	31	28	0.973
8	32	29	0.973
8	33	30	0.973
8	34	31	0.973
8	35	32	0.973
8	36	33	0.973
8	37	34	0.973
8	38	35	0.973
8	39	36	0.973
8	40	37	0.973
8	41	38	0.973
8	42	39	0.973
8	43	40	0.973
8	45	41	1.6128603524732
8	46	42	3.5343064223593
8	47	43	4.6313015073029
8	48	44	5.2529062988569
8	49	45	5.4388880009457
8	50	46	6.0189783772741
8	51	47	5.8106720086664
8	52	48	8.9952040900507
8	53	49	11.11622998433
8	54	50	0.973
8	55	51	0.973
8	56	52	3.9865042908347
8	58	53	1.8781915232985
8	59	54	2.3646289142814
8	60	55	11.785011779103
8	61	56	7.1011962503023
7	4	3	1.7152554555098
7	5	4	2.5400754326023
7	6	5	2.1827345938887
7	7	6	1.7201388832182
7	8	7	2.3980328541948
7	9	8	2.5434896687279
7	10	9	-3.6839712831681
7	11	10	-4.3166971061515
7	13	11	-4.5
7	14	12	-2.8728577945455
7	15	13	0
7	16	14	0
7	17	15	0
7	18	16	0
7	19	17	0
7	20	18	0
7	21	19	0
7	22	20	0
7	23	21	0
7	24	22	0
7	26	23	0
7	27	24	0
7	28	25	0
7	29	26	0
7	30	27	0
7	31	28	0
7	32	29	0
7	33	30	0
7	34	31	0
7	35	32	0
7	36	33	0
7	37	34	0
7	38	35	0
7	39	36	0
7	40	37	0
7	41	38	0
7	42	39	0
7	43	40	0
7	45	41	1.3475482204231
7	46	42	2.4460121155251
7	47	43	2.2169354937272
7	48	44	1.9382744400995
7	49	45	1.6382067191415
7	50	46	1.5766648343997
7	51	47	1.3046075610677
7	52	48	1.9837334444281
7	53	49	2.1887489315355
7	54	50	-1.824492062836
7	55	51	-1.2925820851574
7	56	52	0.57054198006404
7	58	53	-0.048838871456118
7	59	54	0.091481063454838
7	60	55	2.3774899824522
7	61	56	1.0929051605601
4	3	2	2.2737992957234
4	4	3	3.9890547512332
4	5	4	6.5291301838355
4	6	5	8.7118647777243
4	7	6	10.432003660942
4	8	7	12.830036515137
4	9	8	15.373526183865
4	10	9	11.689554900697
4	11	10	7.3728577945455
4	13	11	2.8728577945455
4	14	12	0
4	15	13	0
4	16	14	0
4	17	15	0
4	18	16	0
4	19	17	0
4	20	18	0
4	21	19	0
4	22	20	0
4	23	21	0
4	24	22	0
4	26	23	0
4	27	24	0
4	28	25	0
4	29	26	0
4	30	27	0
4	31	28	0
4	32	29	0
4	33	30	0
4	34	31	0
4	35	32	0
4	36	33	0
4	37	34	0
4	38	35	0
4	39	36	0
4	40	37	0
4	41	38	0
4	42	39	0
4	43	40	0
4	45	41	1.3475482204231
4	46	42	3.7935603359481
4	47	43	6.0104958296753
4	48	44	7.9487702697748
4	49	45	9.5869769889163
4	50	46	11.163641823316
4	51	47	12.468249384384
4	52	48	14.451982828812
4	53	49	16.640731760347
4	54	50	14.816239697511
4	55	51	13.523657612354
4	56	52	14.094199592418
4	58	53	14.045360720962
4	59	54	14.136841784417
4	60	55	16.514331766869
4	61	56	17.607236927429
1	2	1	212.59744631541
1	3	2	210.32696690728
1	4	3	206.34373642268
1	5	4	199.8241391727
1	6	5	191.12499425633
1	7	6	180.96944590215
1	8	7	168.70125776096
1	9	8	154.3539628276
1	10	9	143.47478677408
1	11	10	136.59629380721
1	13	11	133.86243965395
1	14	12	133.86243965395
1	15	13	133.86243965395
1	16	14	133.86243965395
1	17	15	133.86243965395
1	18	16	133.86243965395
1	19	17	133.86243965395
1	20	18	133.86243965395
1	21	19	133.86243965395
1	22	20	133.86243965395
1	23	21	133.86243965395
1	24	22	133.86243965395
1	26	23	133.86243965395
1	27	24	133.86243965395
1	28	25	133.86243965395
1	29	26	133.86243965395
1	30	27	133.86243965395
1	31	28	133.86243965395
1	32	29	133.86243965395
1	33	30	133.86243965395
1	34	31	133.86243965395
1	35	32	133.86243965395
1	36	33	133.86243965395
1	37	34	133.86243965395
1	38	35	133.86243965395
1	39	36	133.86243965395
1	40	37	133.86243965395
1	41	38	133.86243965395
1	42	39	133.86243965395
1	43	40	133.86243965395
1	45	41	133.29132260092
1	46	42	136.00473932215
1	47	43	141.6109762578
1	48	44	149.00864742684
1	49	45	157.93094620541
1	50	46	168.37340327866
1	51	47	180.30498864826
1	52	48	194.47028656959
1	53	49	211.08623824577
1	54	50	225.87698792531
1	55	51	239.33393962921
1	56	52	253.0801861321
1	58	53	266.57750421684
1	59	54	280.16273382175
1	60	55	296.0326849923
1	61	56	312.80511923662
0	2	1	172.41000787992
0	3	2	172.5303890029
0	4	3	172.74158041786
0	5	4	173.08725033917
0	6	5	173.5484801703
0	7	6	175.67674710459
0	8	7	179.41541462146
0	9	8	184.92931651593
0	10	9	189.20406793558
0	11	10	191.872339161
0	13	11	191.99585423087
0	14	12	191.99585423087
0	15	13	191.99585423087
0	16	14	191.99585423087
0	17	15	191.99585423087
0	18	16	191.99585423087
0	19	17	191.99585423087
0	20	18	191.99585423087
0	21	19	191.99585423087
0	22	20	191.99585423087
0	23	21	191.99585423087
0	24	22	191.99585423087
0	26	23	191.99585423087
0	27	24	191.99585423087
0	28	25	191.99585423087
0	29	26	191.99585423087
0	30	27	191.99585423087
0	31	28	191.99585423087
0	32	29	191.99585423087
0	33	30	191.99585423087
0	34	31	191.99585423087
0	35	32	191.99585423087
0	36	33	191.99585423087
0	37	34	191.99585423087
0	38	35	191.99585423087
0	39	36	191.99585423087
0	40	37	191.99585423087
0	41	38	191.99585423087
0	42	39	191.99585423087
0	43	40	191.99585423087
0	45	41	190.92247650198
0	46	42	188.66430889514
0	47	43	186.49281613201
0	48	44	183.58648116483
0	49	45	180.08116329718
0	50	46	176.14369279325
0	51	47	172.54208597334
0	52	48	170.17320203942
0	53	49	169.2914268261
0	54	50	169.40114733432
0	55	51	170.71859630703
0	56	52	173.76246441229
0	58	53	177.65072575785
0	59	54	181.56431235422
0	60	55	186.13607374452
0	61	56	191.49569941692
21	7	6	2.3292766763502
21	8	7	4.4438871268835
21	9	8	6.3030407006077
21	10	9	4.9213660165796
21	11	10	6.9142819653787
21	13	11	8.1567057698801
21	14	12	2.8845228425357
21	15	13	0.973
21	16	14	3.6985398066645
21	17	15	4.4815122380636
21	18	16	0.973
21	19	17	0.973
21	20	18	2.7883629314799
21	21	19	0.973
21	22	20	0.973
21	23	21	5.0572650157909
21	24	22	3.4977330615883
21	26	23	5.4737696227362
21	27	24	0.973
21	28	25	0.973
21	29	26	0.973
21	30	27	1.3171618964914
21	31	28	5.3224792992254
21	32	29	5.6273549385829
21	33	30	5.8671446729555
21	34	31	8.8024007784767
21	35	32	11.03105992717
21	36	33	0.973
21	37	34	0.973
21	38	35	0.973
21	39	36	0.973
21	40	37	0.973
21	41	38	0.973
21	42	39	1.1109089898428
21	43	40	1.1102125060043
21	45	41	1.1100755308496
21	46	42	0.973
21	47	43	1.3764207620776
21	48	44	2.123926222968
21	49	45	0.973
21	50	46	0.973
21	51	47	1.2363989712396
21	52	48	1.9011493798023
21	53	49	1.4351458783056
21	54	50	0.973
21	55	51	1.7158005256908
21	56	52	3.4056497969231
21	58	53	4.6554048994674
21	59	54	7.5289648236477
21	60	55	6.4764161621569
21	61	56	8.6252598211532
21	62	57	7.1904132254591
21	63	58	1.3916101352764
21	64	59	0.973
21	65	60	0.973
21	66	61	0.973
21	67	62	0.973
21	68	63	0.973
21	69	64	1.1102723578501
21	70	65	1.1101482696587
21	71	66	1.1100138111327
21	72	67	0.973
21	73	68	1.9026548589884
20	7	6	1.4788391654845
20	8	7	2.3642453478184
20	9	8	2.5100635003299
20	10	9	1.4594752020435
20	11	10	1.8949667817447
20	13	11	1.9505833046045
20	14	12	0.27724494470965
20	15	13	-0.61546003154945
20	16	14	0.53382525343914
20	17	15	0.71596989189275
20	18	16	-0.30390642560087
20	19	17	-0.89222200680524
20	20	18	0.26242767493538
20	21	19	-4.0970365759901
20	22	20	-4.4916849396424
20	23	21	2.1996845621383
20	24	22	1.043558429373
20	26	23	1.6729553929064
20	27	24	-2.932911265579
20	28	25	-0.61686451744384
20	29	26	-0.33006611345336
20	30	27	-0.05724044831004
20	31	28	2.0700068679173
20	32	29	1.7627893261844
20	33	30	1.5574287398718
20	34	31	2.168062190013
20	35	32	2.3672626459738
20	36	33	-1.8520339564694
20	37	34	-4.5
20	38	35	-4.0062795013655
20	39	36	-4.4011118575755
20	40	37	-0.39642995588907
20	41	38	-0.28991553023828
20	42	39	-0.014140405428618
20	43	40	-0.015500434813129
20	45	41	-0.0031839057028143
20	46	42	-0.0015910382819319
20	47	43	0.95592937423862
20	48	44	1.5062353838983
20	49	45	-0.70540190365587
20	50	46	-0.3607498098893
20	51	47	0.14031319723712
20	52	48	1.0611038830506
20	53	49	0.26759248376874
20	54	50	-0.11561354720028
20	55	51	0.55610166976694
20	56	52	1.6951142302249
20	58	53	1.91023722135
20	59	54	2.5735996489879
20	60	55	1.7360844859155
20	61	56	2.0771032436052
20	62	57	1.429814845114
20	63	58	-0.20061886702156
20	64	59	-3.519477537624
20	65	60	-2.8793445287098
20	66	61	-4.5
20	67	62	-3.264600021148
20	68	63	-0.32802651743781
20	69	64	-0.028802105283191
20	70	65	-0.0034670700997514
20	71	66	-0.0028373420126499
20	72	67	-0.00029041707552565
20	73	68	1.7157102262454
19	6	5	1.528189688758
19	7	6	3.0070288542425
19	8	7	5.3712742020609
19	9	8	7.8813377023907
19	10	9	9.3408129044343
19	11	10	11.235779686179
19	13	11	13.186362990784
19	14	12	13.463607935493
19	15	13	12.848147903944
19	16	14	13.381973157383
19	17	15	14.097943049276
19	18	16	13.794036623675
19	19	17	12.90181461687
19	20	18	13.164242291805
19	21	19	9.0672057158148
19	22	20	4.5755207761723
19	23	21	6.7752053383106
19	24	22	7.8187637676836
19	26	23	9.4917191605901
19	27	24	6.5588078950111
19	28	25	5.9419433775672
19	29	26	5.6118772641139
19	30	27	5.5546368158038
19	31	28	7.6246436837211
19	32	29	9.3874330099055
19	33	30	10.944861749777
19	34	31	13.11292393979
19	35	32	15.480186585764
19	36	33	13.628152629295
19	37	34	9.1281526292948
19	38	35	5.1218731279293
19	39	36	0.72076127035384
19	40	37	0.32433131446478
19	41	38	0.034415784226493
19	42	39	0.020275378797875
19	43	40	0.0047749439847462
19	45	41	0.0015910382819319
19	46	42	0
19	47	43	0.95592937423862
19	48	44	2.4621647581369
19	49	45	1.756762854481
19	50	46	1.3960130445917
19	51	47	1.5363262418288
19	52	48	2.5974301248794
19	53	49	2.8650226086482
19	54	50	2.7494090614479
19	55	51	3.3055107312148
19	56	52	5.0006249614397
19	58	53	6.9108621827897
19	59	54	9.4844618317775
19	60	55	11.220546317693
19	61	56	13.297649561298
19	62	57	14.727464406412
19	63	58	14.526845539391
19	64	59	11.007368001767
19	65	60	8.128023473057
19	66	61	3.628023473057
19	67	62	0.36342345190892
19	68	63	0.035396934471118
19	69	64	0.0065948291879269
19	70	65	0.0031277590881756
19	71	66	0.00029041707552565
19	72	67	0
19	73	68	1.7157102262454
11	5	4	225.60431093681
11	6	5	227.09783497194
11	7	6	230.03665199263
11	8	7	235.28608351222
11	9	8	242.9958583658
11	10	9	252.26245773807
11	11	10	263.41044561062
11	13	11	274.83133010773
11	14	12	278.18219411376
11	15	13	279.16782472308
11	16	14	280.19440711111
11	17	15	281.30882624819
11	18	16	273.10681102771
11	19	17	264.42484711074
11	20	18	251.74389671813
11	21	19	243.00957055389
11	22	20	238.74124947713
11	23	21	234.71185354092
11	24	22	235.53893398526
11	26	23	237.71334008294
11	27	24	239.21586155867
11	28	25	240.23075246153
11	29	26	236.51998313292
11	30	27	231.00848972178
11	31	28	223.41187781631
11	32	29	214.04502126404
11	33	30	203.1161396893
11	34	31	190.02236142942
11	35	32	175.04945729937
11	36	33	162.1930213218
11	37	34	153.6976782278
11	38	35	148.93087915325
11	39	36	148.26008468594
11	40	37	147.95823765244
11	41	38	147.92620774379
11	42	39	147.90733795641
11	43	40	147.9028940356
11	45	41	147.90141329611
11	46	42	147.90141329611
11	47	43	147.01175376284
11	48	44	144.72027867212
11	49	45	143.08530347071
11	50	46	141.78606908461
11	51	47	140.35156754837
11	52	48	137.92625628719
11	53	49	135.24921087212
11	54	50	133.28823862374
11	55	51	135.52069909652
11	56	52	140.18734206963
11	58	53	146.62018338457
11	59	54	155.44707452188
11	60	55	165.90013407816
11	61	56	178.58942546413
11	62	57	192.96540618783
11	63	58	207.47061947809
11	64	59	218.46374406232
11	65	60	226.57204877369
11	66	61	230.18406626084
11	67	62	230.54588637399
11	68	63	230.58112714551
11	69	64	230.58769287987
11	70	65	230.59080684002
11	71	66	230.59109597584
11	72	67	230.59109597584
11	73	68	232.29923689227
10	5	4	290.85928889175
10	6	5	291.18269245167
10	7	6	291.81905575354
10	8	7	292.95575312234
10	9	8	294.58147986214
10	10	9	295.75406284524
10	11	10	297.02825973733
10	13	11	292.20463251665
10	14	12	279.34304860994
10	15	13	266.53320317388
10	16	14	253.19112390634
10	17	15	239.13780960566
10	18	16	228.09079193292
10	19	17	219.13606455228
10	20	18	215.60351408577
10	21	19	213.17038036858
10	22	20	211.54613311024
10	23	21	206.45010372003
10	24	22	198.76810455974
10	26	23	189.5299968178
10	27	24	183.14643521346
10	28	25	177.30634669236
10	29	26	173.74105293378
10	30	27	173.09196399647
10	31	28	172.39116954025
10	32	29	172.33325726184
10	33	30	172.9127080299
10	34	31	173.60694191079
10	35	32	177.35059003594
10	36	33	181.84911758709
10	37	34	185.18719022906
10	38	35	187.06020717546
10	39	36	187.32378224652
10	40	37	187.44238691186
10	41	38	187.45497241437
10	42	39	187.46238691432
10	43	40	187.46413306281
10	45	41	187.46471488934
10	46	42	187.46471488934
10	47	43	187.81428854585
10	48	44	188.71467717353
10	49	45	189.35710749444
10	50	46	189.86761527638
10	51	47	190.42294159418
10	52	48	191.3617717598
10	53	49	192.3457727573
10	54	50	190.95297360972
10	55	51	188.8479217711
10	56	52	187.04933429849
10	58	53	184.52484087362
10	59	54	181.05700595941
10	60	55	176.98296004273
10	61	56	173.0258147581
10	62	57	170.25306302154
10	63	58	169.48330045887
10	64	59	168.90347740538
10	65	60	169.46531469476
10	66	61	169.79877273457
10	67	62	169.83217562537
10	68	63	169.83542902008
10	69	64	169.83603516247
10	70	65	169.83632264033
10	71	66	169.83634933307
10	72	67	169.83634933307
10	73	68	169.99404328769
41	11	10	3.1877840566213
41	13	11	3.6276694182737
41	14	12	6.1985282288475
41	15	13	5.4643309724723
41	16	14	6.6171602404634
41	17	15	7.3308470439049
41	18	16	0.973
41	19	17	0.973
41	20	18	0.973
41	21	19	0.973
41	22	20	0.973
41	23	21	0.973
41	24	22	1.1100630981322
41	26	23	1.1100098929903
41	27	24	1.1100068395776
41	28	25	0.973
41	29	26	0.973
41	30	27	0.973
41	31	28	0.973
41	32	29	0.973
41	33	30	0.973
41	34	31	0.973
41	35	32	0.973
41	36	33	0.973
41	37	34	0.973
41	38	35	0.973
41	39	36	0.973
41	40	37	0.973
41	41	38	0.973
41	42	39	0.973
41	43	40	0.973
41	45	41	0.973
41	46	42	1.3856051056966
41	47	43	2.2740223911699
41	48	44	0.973
41	49	45	0.973
41	50	46	0.973
41	51	47	1.2450439672958
41	52	48	2.4054982106205
41	53	49	4.5719026512505
41	54	50	6.2133607254272
41	55	51	7.2399350619792
41	56	52	8.1284852157846
41	58	53	8.4744752911775
41	59	54	10.937034136531
41	60	55	0.973
41	61	56	0.973
41	62	57	0.973
41	63	58	0.973
41	64	59	0.973
41	65	60	0.973
41	66	61	1.110052048969
41	67	62	1.1100134014411
41	68	63	0.973
41	69	64	0.973
41	70	65	0.973
41	71	66	0.973
41	72	67	2.3119154858873
41	73	68	1.4943492726748
41	74	69	3.8794190459136
40	11	10	1.8149746041279
40	13	11	1.5757762638619
40	14	12	2.3517901421525
40	15	13	1.6070200065151
40	16	14	1.7309295734623
40	17	15	1.686133800284
40	18	16	-3.4785560912874
40	19	17	-3.795097556687
40	20	18	-2.8761723940261
40	21	19	-2.698069883676
40	22	20	-0.19706953365101
40	23	21	-0.16528021111487
40	24	22	-0.0036953019525399
40	26	23	-0.0011263667701379
40	27	24	-6.4411187559551e-05
40	28	25	-0.00014182792616882
40	29	26	0
40	30	27	0
40	31	28	0
40	32	29	0
40	33	30	0
40	34	31	0
40	35	32	0
40	36	33	0
40	37	34	0
40	38	35	0
40	39	36	0
40	40	37	0
40	41	38	0
40	42	39	0
40	43	40	0
40	45	41	0
40	46	42	0.97381285087728
40	47	43	1.6429729918949
40	48	44	-0.5992102185725
40	49	45	-0.2628863730235
40	50	46	-0.1302655735286
40	51	47	0.11990742336493
40	52	48	1.4688386279158
40	53	49	2.3636888966663
40	54	50	2.4224920479814
40	55	51	2.2429834315786
40	56	52	2.1008259876864
40	58	53	1.8720458762022
40	59	54	2.1833249288378
40	60	55	-0.81359371270407
40	61	56	-4.5
40	62	57	-4.5
40	63	58	-4.1618566555215
40	64	59	-0.86399641570042
40	65	60	-1.5524362534206
40	66	61	-0.0055381996718319
40	67	62	-0.00083069549670661
40	68	63	-0.00027896536588526
40	69	64	0
40	70	65	0
40	71	66	0
40	72	67	2.1345288159688
40	73	68	0.42131571222301
40	74	69	2.2049139989074
35	10	9	2.448649187875
35	11	10	4.2636237920029
35	13	11	5.8394000558648
35	14	12	8.1911901980173
35	15	13	9.7982102045324
35	16	14	11.529139777995
35	17	15	13.215273578279
35	18	16	9.7367174869913
35	19	17	5.9416199303044
35	20	18	3.0654475362783
35	21	19	0.36737765260228
35	22	20	0.17030811895128
35	23	21	0.0050279078364062
35	24	22	0.0013326058838663
35	26	23	0.00020623911372837
35	27	24	0.00014182792616882
35	28	25	0
35	29	26	0
35	30	27	0
35	31	28	0
35	32	29	0
35	33	30	0
35	34	31	0
35	35	32	0
35	36	33	0
35	37	34	0
35	38	35	0
35	39	36	0
35	40	37	0
35	41	38	0
35	42	39	0
35	43	40	0
35	45	41	0
35	46	42	0.97381285087728
35	47	43	2.6167858427722
35	48	44	2.0175756241997
35	49	45	1.7546892511762
35	50	46	1.6244236776476
35	51	47	1.7443311010125
35	52	48	3.2131697289284
35	53	49	5.5768586255947
35	54	50	7.999350673576
35	55	51	10.242334105155
35	56	52	12.343160092841
35	58	53	14.215205969043
35	59	54	16.398530897881
35	60	55	15.584937185177
35	61	56	11.084937185177
35	62	57	6.584937185177
35	63	58	2.4230805296555
35	64	59	1.559084113955
35	65	60	0.0066478605344237
35	66	61	0.0011096608625919
35	67	62	0.00027896536588526
35	68	63	0
35	69	64	0
35	70	65	0
35	71	66	0
35	72	67	2.1345288159688
35	73	68	2.5558445281918
35	74	69	4.7607585270993
30	9	8	212.59744631541
30	10	9	210.15237230678
30	11	10	205.89497366919
30	13	11	200.06409949854
30	14	12	191.88486894479
30	15	13	182.31153021876
30	16	14	171.25372128174
30	17	15	158.87139261473
30	18	16	149.80967344541
30	19	17	144.27995654737
30	20	18	141.4258607171
30	21	19	141.08282736678
30	22	20	140.92380472559
30	23	21	140.91910999237
30	24	22	140.91786569169
30	26	23	140.91767311903
30	27	24	140.91754068934
30	28	25	140.91754068934
30	29	26	140.91754068934
30	30	27	140.91754068934
30	31	28	140.91754068934
30	32	29	140.91754068934
30	33	30	140.91754068934
30	34	31	140.91754068934
30	35	32	140.91754068934
30	36	33	140.91754068934
30	37	34	140.91754068934
30	38	35	140.91754068934
30	39	36	140.91754068934
30	40	37	140.91754068934
30	41	38	140.91754068934
30	42	39	140.91754068934
30	43	40	140.91754068934
30	45	41	140.91754068934
30	46	42	140.00825760569
30	47	43	137.56487323442
30	48	44	135.68161560958
30	49	45	133.98547132546
30	50	46	133.30531822266
30	51	47	134.22159881826
30	52	48	137.22037930289
30	53	49	142.41974829512
30	54	50	149.86449305947
30	55	51	159.39671215021
30	56	52	170.98157697427
30	58	53	184.63712651452
30	59	54	200.9086677362
30	60	55	216.47039704442
30	61	56	227.53054640161
30	62	57	234.08643239332
30	63	58	236.35331147087
30	64	59	237.24073576758
30	65	60	237.24312763885
30	66	61	237.24352689
30	67	62	237.24362726052
30	68	63	237.24362726052
30	69	64	237.24362726052
30	70	65	237.24362726052
30	71	66	237.24362726052
30	72	67	235.80925026818
30	73	68	233.29898884264
30	74	69	228.55573310425
29	9	8	172.41000787992
29	10	9	172.53964603206
29	11	10	172.76537387928
29	13	11	173.07452761048
29	14	12	173.50819151232
29	15	13	175.29728043711
29	16	14	178.5489489284
29	17	15	183.15428416967
29	18	16	186.71490279492
29	19	17	188.8876928154
29	20	18	190.00708617403
29	21	19	190.13987327738
29	22	20	190.2014304288
29	23	21	190.20324774489
29	24	22	190.20372940967
29	26	23	190.20380395393
29	27	24	190.20385521703
29	28	25	190.20385521703
29	29	26	190.20385521703
29	30	27	190.20385521703
29	31	28	190.20385521703
29	32	29	190.20385521703
29	33	30	190.20385521703
29	34	31	190.20385521703
29	35	32	190.20385521703
29	36	33	190.20385521703
29	37	34	190.20385521703
29	38	35	190.20385521703
29	39	36	190.20385521703
29	40	37	190.20385521703
29	41	38	190.20385521703
29	42	39	190.20385521703
29	43	40	190.20385521703
29	45	41	190.20385521703
29	46	42	190.55583576554
29	47	43	191.50166197377
29	48	44	192.2191127634
29	49	45	192.05000392724
29	50	46	190.7840753537
29	51	47	189.34043781066
29	52	48	188.19492946656
29	53	49	186.17507256125
29	54	50	183.25024371499
29	55	51	179.50530547359
29	56	52	175.25864770264
29	58	53	171.32057469072
29	59	54	169.83153007038
29	60	55	169.00570032268
29	61	56	169.55380228966
29	62	57	170.15903548683
29	63	58	170.74142782167
29	64	59	171.95815839716
29	65	60	171.96436231327
29	66	61	171.96539787093
29	67	62	171.96565820698
29	68	63	171.96565820698
29	69	64	171.96565820698
29	70	65	171.96565820698
29	71	66	171.96565820698
29	72	67	173.36371442123
29	73	68	173.30326465338
29	74	69	172.86569493582
46	14	12	3.3994910802438
46	15	13	3.8013499951208
46	16	14	4.5220374333304
46	17	15	4.5571621568941
46	18	16	7.0231088642064
46	19	17	9.777467284442
46	20	18	7.408598482597
46	21	19	7.4228854655327
46	22	20	3.8088525500868
46	23	21	2.7727817564858
46	24	22	4.8222374032075
46	26	23	0.973
46	27	24	4.1029576290072
46	28	25	4.2398209288451
46	29	26	2.7456668983489
46	30	27	0.973
46	31	28	0.973
46	32	29	0.973
46	33	30	0.973
46	34	31	0.973
46	35	32	4.8956656241526
46	36	33	5.1378452386957
46	37	34	6.7739583742026
46	38	35	9.2545732899583
46	39	36	8.6962297221963
46	40	37	9.9288574594812
46	41	38	3.1459781431949
46	42	39	1.4503228869846
46	43	40	7.0750867062461
46	45	41	1.85346122179
46	46	42	1.8977737708335
46	47	43	0.973
46	48	44	5.0142954303392
46	49	45	0.973
46	50	46	0.973
46	51	47	0.973
46	52	48	0.973
46	53	49	0.973
46	54	50	0.973
46	55	51	1.3568111965822
46	56	52	4.864306141193
46	58	53	2.0847498174358
46	59	54	0.973
46	60	55	2.9401157643902
46	61	56	3.3629711924732
46	62	57	1.5745219078061
46	63	58	0.973
46	64	59	4.1221535221569
46	65	60	0.973
46	66	61	3.5094480489868
46	67	62	5.7502051307974
46	68	63	3.5412030564086
46	69	64	0.973
46	70	65	1.4740348166363
46	71	66	0.973
46	72	67	3.517769906692
46	73	68	3.7084369696356
46	74	69	7.4718449989571
46	75	70	8.0773670751971
46	76	71	9.6905294156446
46	77	72	8.5907343597048
46	78	73	13.843650051892
45	14	12	2.2645391314989
45	15	13	1.7747161863372
45	16	14	1.7105175084434
45	17	15	1.4074581356952
45	18	16	2.0332066265866
45	19	17	2.4524649926694
45	20	18	1.4927152526099
45	21	19	1.3331719839247
45	22	20	0.37806717476342
45	23	21	0.11211131999735
45	24	22	0.58677810383961
45	26	23	-0.78805522557814
45	27	24	0.43250723944512
45	28	25	0.44079579261597
45	29	26	0.077790424856357
45	30	27	-2.1757084395411
45	31	28	-4.5
45	32	29	-4.5
45	33	30	-1.8386359917872
45	34	31	-0.31067607747391
45	35	32	2.2944247403415
45	36	33	1.8385974508477
45	37	34	2.0713028682163
45	38	35	2.4228953821817
45	39	36	1.8926228230353
45	40	37	1.9263707525097
45	41	38	0.20253904404461
45	42	39	-0.21709354189224
45	43	40	1.0973907794571
45	45	41	-0.13788823136128
45	46	42	-0.12428795972373
45	47	43	-0.91366119920276
45	48	44	0.64460830444004
45	49	45	-1.5194693509934
45	50	46	-2.1056204344058
45	51	47	-0.92361735767066
45	52	48	-0.94024720159929
45	53	49	-2.3429730132237
45	54	50	-1.541020656167
45	55	51	-0.085283742006877
45	56	52	1.4990056059164
45	58	53	0.20648109124647
45	59	54	-0.77178350367449
45	60	55	0.60793580317804
45	61	56	0.72046733709163
45	62	57	-0.038308299046511
45	63	58	-3.8256567544288
45	64	59	1.473473429178
45	65	60	-3.1939391147172
45	66	61	1.5302657888271
45	67	62	2.2070465430152
45	68	63	0.91220143330136
45	69	64	-2.2766366886362
45	70	65	0.013271906889971
45	71	66	-2.9023285227401
45	72	67	1.6635781639256
45	73	68	1.3876754304394
45	74	69	2.5998513045954
45	75	70	2.2483073102077
45	76	71	2.2949710523244
45	77	72	1.7016462402884
45	78	73	2.5851844382472
42	13	11	1.5810179376742
42	14	12	3.8455570691731
42	15	13	5.6202732555103
42	16	14	7.3307907639537
42	17	15	8.7382488996489
42	18	16	10.771455526236
42	19	17	13.223920518905
42	20	18	14.716635771515
42	21	19	16.04980775544
42	22	20	16.427874930203
42	23	21	16.5399862502
42	24	22	17.12676435404
42	26	23	16.338709128462
42	27	24	16.771216367907
42	28	25	17.212012160523
42	29	26	17.289802585379
42	30	27	15.114094145838
42	31	28	10.614094145838
42	32	29	6.1140941458382
42	33	30	4.2754581540509
42	34	31	3.964782076577
42	35	32	6.2592068169185
42	36	33	8.0978042677663
42	37	34	10.169107135983
42	38	35	12.592002518164
42	39	36	14.4846253412
42	40	37	16.410996093709
42	41	38	16.613535137754
42	42	39	16.396441595862
42	43	40	17.493832375319
42	45	41	17.355944143957
42	46	42	17.231656184234
42	47	43	16.317994985031
42	48	44	16.962603289471
42	49	45	15.443133938478
42	50	46	13.337513504072
42	51	47	12.413896146401
42	52	48	11.473648944802
42	53	49	9.1306759315781
42	54	50	7.5896552754112
42	55	51	7.5043715334043
42	56	52	9.0033771393207
42	58	53	9.2098582305672
42	59	54	8.4380747268927
42	60	55	9.0460105300707
42	61	56	9.7664778671624
42	62	57	9.7281695681159
42	63	58	5.9025128136871
42	64	59	7.3759862428651
42	65	60	4.1820471281478
42	66	61	5.7123129169749
42	67	62	7.9193594599901
42	68	63	8.8315608932915
42	69	64	6.5549242046552
42	70	65	6.5681961115452
42	71	66	3.6658675888051
42	72	67	5.3294457527306
42	73	68	6.71712118317
42	74	69	9.3169724877654
42	75	70	11.565279797973
42	76	71	13.860250850298
42	77	72	15.561897090586
42	78	73	18.147081528833
37	11	10	190.60598553674
37	13	11	190.09201305207
37	14	12	188.84186245309
37	15	13	187.01477008379
37	16	14	184.63160626651
37	17	15	182.11866380639
37	18	16	179.21191837123
37	19	17	174.92418787416
37	20	18	170.19016379098
37	21	19	165.50375620703
37	22	20	160.48473628787
37	23	21	155.43146428495
37	24	22	150.19892070833
37	26	23	145.1769834571
37	27	24	139.96964088051
37	28	25	134.63428275773
37	29	26	129.2754717173
37	30	27	124.59100096208
37	31	28	121.3012627125
37	32	29	119.39916023385
37	33	30	116.46204677437
37	34	31	117.41264190969
37	35	32	119.35489818133
37	36	33	121.86485695503
37	37	34	125.01682739451
37	38	35	128.91978752467
37	39	36	133.4093764622
37	40	37	138.4971641522
37	41	38	143.64957158929
37	42	39	148.66703793057
37	43	40	154.01094470535
37	45	41	159.31273024345
37	46	42	164.57654907103
37	47	43	169.44295973772
37	48	44	174.95013878735
37	49	45	179.29395905803
37	50	46	183.37488999065
37	51	47	187.40673608568
37	52	48	194.05836216053
37	53	49	201.22104601215
37	54	50	207.73651503402
37	55	51	212.39080412623
37	56	52	213.92946132548
37	58	53	215.2247895714
37	59	54	217.88726687887
37	60	55	221.95489730955
37	61	56	226.61589358712
37	62	57	229.60971435593
37	63	58	230.42336899848
37	64	59	231.44014026851
37	65	60	232.01663068345
37	66	61	232.88664916445
37	67	62	234.40534498816
37	68	63	236.40756331494
37	69	64	237.90919509726
37	70	65	239.41386726823
37	71	66	240.38757220031
37	72	67	243.05808018284
37	73	68	249.29098079969
37	74	69	258.2913680021
37	75	70	269.40537662556
37	76	71	282.72480773007
37	77	72	297.67152814504
37	78	73	314.95087764615
36	11	10	310.86651536576
36	13	11	312.3620052798
36	14	12	315.999529987
36	15	13	321.31576439997
36	16	14	328.24998278435
36	17	15	336.61549805933
36	18	16	346.98109010932
36	19	17	359.49020919291
36	20	18	373.42324086422
36	21	19	388.77127469354
36	22	20	404.41320669091
36	23	21	420.16188637481
36	24	22	436.46927150521
36	26	23	452.01653796111
36	27	24	467.95837578236
36	28	25	484.32209839305
36	29	26	500.75999307273
36	30	27	515.12938141717
36	31	28	525.2204949986
36	32	29	531.03101425414
36	33	30	530.60062824713
36	34	31	526.8261959788
36	35	32	520.87582088916
36	36	33	513.17664328033
36	37	34	503.50812581877
36	38	35	491.53598366363
36	39	36	477.76438590556
36	40	37	462.16160775268
36	41	38	446.36686142481
36	42	39	430.75662891421
36	43	40	414.09860155604
36	45	41	397.57187452597
36	46	42	381.16349733422
36	47	43	365.59256689313
36	48	44	349.54846663767
36	49	45	334.74497055733
36	50	46	322.05588485354
36	51	47	310.31550918972
36	52	48	301.18632927654
36	53	49	295.5670982994
36	54	50	291.6741312848
36	55	51	286.01977003413
36	56	52	277.16148374761
36	58	53	268.04436570897
36	59	54	260.13466987196
36	60	55	252.05983392729
36	61	56	243.47876637231
36	62	57	234.38868702388
36	63	58	228.54328875057
36	64	59	221.23867483292
36	65	60	217.09709448681
36	66	61	211.45100087264
36	67	62	203.67857313961
36	68	63	195.07767555298
36	69	64	188.69789386978
36	70	65	182.30519489481
36	71	66	178.7787827519
36	72	67	174.28772572384
36	73	68	172.90975059131
36	74	69	175.26368390661
36	75	70	178.46536959361
36	76	71	182.3023858648
36	77	72	186.63661873142
36	78	73	192.18465772036
88	22	20	2.3416903386739
88	23	21	4.0544140343296
88	24	22	5.7545666779888
88	26	23	5.1839480677823
88	27	24	2.406827573623
88	28	25	2.4310206126306
88	29	26	0.973
88	30	27	0.973
88	31	28	2.3552045224125
88	32	29	2.7384464217244
88	33	30	0.973
88	34	31	0.973
88	35	32	1.7797235190621
88	36	33	2.2841418749318
88	37	34	3.8016311646334
88	38	35	0.973
88	39	36	2.4824076022034
88	40	37	1.4448519824859
88	41	38	0.973
88	42	39	4.4972677942174
88	43	40	0.973
88	45	41	2.5753674289831
88	46	42	1.2523239844863
88	47	43	0.973
88	48	44	2.2038407008446
88	49	45	2.4474956898489
88	50	46	0.973
88	51	47	1.7060208800543
88	52	48	0.973
88	53	49	1.515253612581
88	54	50	0.973
88	55	51	6.1325033539452
88	56	52	5.323914921046
88	58	53	0.973
88	59	54	1.8842110935858
88	60	55	2.2217581140719
88	61	56	2.8233866042805
88	62	57	0.973
88	63	58	4.9647909350038
88	64	59	6.619634487668
88	65	60	1.3195350787028
88	66	61	0.973
88	67	62	0.973
88	68	63	0.973
88	69	64	1.4402649822665
88	70	65	0.973
88	71	66	4.0202660809849
88	72	67	4.7127418966484
88	73	68	5.5755533853377
88	74	69	6.6000552502453
88	75	70	7.0396108694481
88	76	71	11.127498480002
88	77	72	1.3584768764144
88	78	73	3.1371203394627
87	22	20	1.407928625471
87	23	21	2.1050269616535
87	24	22	2.3162660283735
87	26	23	1.6053928433824
87	27	24	0.32985600400716
87	28	25	0.31936033035163
87	29	26	-0.62323445638176
87	30	27	-0.4154097562423
87	31	28	0.33305143681355
87	32	29	0.46767832865007
87	33	30	-0.32943166776095
87	34	31	-0.50918422231916
87	35	32	0.083664685906843
87	36	33	0.29996536099352
87	37	34	0.87496775421314
87	38	35	-0.54161214595661
87	39	36	0.34216871073004
87	40	37	-0.093774369219318
87	41	38	-0.94270021193661
87	42	39	1.1722374431323
87	43	40	-0.5929433634039
87	45	41	0.38642845638096
87	46	42	-0.1737632896984
87	47	43	-0.78647368105594
87	48	44	0.26890257094055
87	49	45	0.35484095539432
87	50	46	-0.42028718059882
87	51	47	0.041953917336649
87	52	48	-2.5787115485303
87	53	49	0.042034209519625
87	54	50	-0.18029856204521
87	55	51	2.2124833118403
87	56	52	1.5024749127345
87	58	53	-0.94777289414778
87	59	54	0.11613228481728
87	60	55	0.25300687772688
87	61	56	0.47719846942928
87	62	57	-4.001455367774
87	63	58	1.8344325045589
87	64	59	2.0823179148354
87	65	60	-0.14674226432107
87	66	61	-2.3661502771591
87	67	62	-2.9018325529108
87	68	63	-0.79175790957011
87	69	64	0.15459267057013
87	70	65	-0.39307912783697
87	71	66	2.0145442389883
87	72	67	1.8379223906668
87	73	68	1.810456270352
87	74	69	1.8413121490739
87	75	70	1.6908039316302
87	76	71	2.4699592189165
87	77	72	-0.21542582689656
87	78	73	0.26811547048856
84	21	19	1.7626134104794
84	22	20	3.1705420359503
84	23	21	5.2755689976038
84	24	22	7.5918350259773
84	26	23	9.1972278693597
84	27	24	9.5270838733669
84	28	25	9.8464442037185
84	29	26	9.2232097473367
84	30	27	8.8077999910944
84	31	28	9.140851427908
84	32	29	9.6085297565581
84	33	30	9.2790980887971
84	34	31	8.769913866478
84	35	32	8.8535785523848
84	36	33	9.1535439133783
84	37	34	10.028511667591
84	38	35	9.4868995216349
84	39	36	9.8290682323649
84	40	37	9.7352938631456
84	41	38	8.792593651209
84	42	39	9.9648310943413
84	43	40	9.3718877309374
84	45	41	9.7583161873184
84	46	42	9.58455289762
84	47	43	8.798079216564
84	48	44	9.0669817875046
84	49	45	9.4218227428989
84	50	46	9.0015355623001
84	51	47	9.0434894796367
84	52	48	6.4647779311064
84	53	49	6.5068121406261
84	54	50	6.3265135785809
84	55	51	8.5389968904212
84	56	52	10.041471803156
84	58	53	9.0936989090079
84	59	54	9.2098311938252
84	60	55	9.462838071552
84	61	56	9.9400365409813
84	62	57	5.9385811732073
84	63	58	7.7730136777662
84	64	59	9.8553315926017
84	65	60	9.7085893282806
84	66	61	7.3424390511215
84	67	62	4.4406064982107
84	68	63	3.6488485886406
84	69	64	3.8034412592107
84	70	65	3.4103621313738
84	71	66	5.4249063703621
84	72	67	7.2628287610289
84	73	68	9.0732850313809
84	74	69	10.914597180455
84	75	70	12.605401112085
84	76	71	15.075360331001
84	77	72	14.859934504105
84	78	73	15.128049974593
73	20	18	117.9180057318
73	21	19	118.46433740987
73	22	20	119.44706427475
73	23	21	121.08225577283
73	24	22	123.43538660952
73	26	23	126.28611774861
73	27	24	129.23908956233
73	28	25	132.29104885916
73	29	26	135.1498332236
73	30	27	137.88061549568
73	31	28	140.71549624129
73	32	29	143.69541952472
73	33	30	146.53796465794
73	34	31	149.21701394253
73	35	32	151.92154988365
73	36	33	154.71771737186
73	37	34	157.78116455093
73	38	35	160.67916343063
73	39	36	163.68168587339
73	40	37	166.50199844451
73	41	38	169.20935130261
73	42	39	172.44459226765
73	43	40	175.48732473544
73	45	41	178.29196641935
73	46	42	180.8470248676
73	47	43	183.70450820037
73	48	44	186.64932702941
73	49	45	191.00926902928
73	50	46	197.55258347365
73	51	47	205.11409455173
73	52	48	210.38600665838
73	53	49	212.95496155913
73	54	50	213.8916542897
73	55	51	215.092628679
73	56	52	218.17152962987
73	58	53	222.29441557537
73	59	54	226.68975537907
73	60	55	229.59447320037
73	61	56	230.96469587231
73	62	57	231.78332249698
73	63	58	232.94928680672
73	64	59	234.91224131879
73	65	60	237.13632901861
73	66	61	238.81836827562
73	67	62	239.83564256321
73	68	63	240.13685273297
73	69	64	237.87939346302
73	70	65	234.5358107403
73	71	66	229.13084887865
73	72	67	221.89481341574
73	73	68	212.83817939838
73	74	69	201.93951820481
73	75	70	189.35252175792
73	76	71	174.79351368487
73	77	72	160.79907988408
73	78	73	146.71978256111
72	20	18	525.28341924882
72	21	19	523.60757314854
72	22	20	520.59310583816
72	23	21	515.5772347011
72	24	22	508.35911923311
72	26	23	499.6146388118
72	27	24	490.55654004702
72	28	25	481.19480194702
72	29	26	472.42561864496
72	30	27	464.05164260482
72	31	28	455.36129293948
72	32	29	446.22631421097
72	33	30	437.39313346728
72	34	31	429.04224357037
72	35	32	420.6116635477
72	36	33	411.8954496466
72	37	34	402.3460714351
72	38	35	393.31242869833
72	39	36	383.95296508812
72	40	37	374.63607436951
72	41	38	366.2731398543
72	42	39	356.84789147833
72	43	40	347.98347934936
72	45	41	338.64717522243
72	46	42	329.41680227759
72	47	43	321.09606607162
72	48	44	312.5210167022
72	49	45	304.3144733299
72	50	46	298.16767572256
72	51	47	293.2495514478
72	52	48	289.56416756011
72	53	49	283.68217426528
72	54	50	277.42758711482
72	55	51	268.97457506701
72	56	52	259.53499228766
72	58	53	251.43476816846
72	59	54	243.34278406537
72	60	55	234.4981814208
72	61	56	224.6543277491
72	62	57	218.77321012487
72	63	58	211.08810024679
72	64	59	201.43064969339
72	65	60	191.98146638745
72	66	61	184.83521164738
72	67	62	180.51325473147
72	68	63	176.91211135918
72	69	64	174.06156431242
72	70	65	173.41736261442
72	71	66	172.91874989655
72	72	67	172.25100599204
72	73	68	172.39724417955
72	74	69	172.97509265894
72	75	70	173.64245690008
72	76	71	177.42295662964
72	77	72	182.39683858273
72	78	73	187.92901270354
81	21	19	4.134773984469
81	22	20	3.6984169677187
81	23	21	4.3469802684587
81	24	22	4.9926523637541
81	26	23	7.5391209600572
81	27	24	10.061613528202
81	28	25	0.973
81	29	26	0.973
81	30	27	0.973
81	31	28	1.5275326361633
81	32	29	5.9558332249528
81	33	30	0.973
81	34	31	0.973
81	35	32	0.973
81	36	33	0.973
81	37	34	1.1110071874951
81	38	35	1.1102532984801
81	39	36	1.1100103905296
81	40	37	0.973
81	41	38	0.973
81	42	39	0.973
81	43	40	0.973
81	45	41	0.973
81	46	42	0.973
81	47	43	0.973
81	48	44	0.973
81	49	45	0.973
81	50	46	2.1165164505245
81	51	47	3.8821962548227
81	52	48	4.6671060024022
81	53	49	4.372714141968
81	54	50	3.9187204872289
81	55	51	5.320729290215
81	56	52	6.094987574744
81	58	53	6.5071677917074
81	59	54	2.419666865255
81	60	55	2.1923298768355
81	61	56	2.8509730693593
81	62	57	4.7977470498834
81	63	58	0.973
81	64	59	5.7502281671182
81	65	60	0.973
81	66	61	1.775913542219
81	67	62	3.582009902749
81	68	63	0.973
81	69	64	2.7924772225001
81	70	65	3.2859480157587
81	71	66	0.973
81	72	67	0.973
81	73	68	0.973
81	74	69	0.973
81	75	70	0.973
81	76	71	1.3017213729222
81	77	72	5.3097541258281
81	78	73	5.2924388753627
81	79	74	6.4992186506276
81	80	75	7.6921042544694
81	81	76	6.7223800838476
81	82	77	3.7905111206722
81	83	78	2.2328090346002
81	84	79	0.973
81	85	80	2.3623376163684
81	86	81	0.973
81	87	82	4.7393245467418
81	88	83	2.10803699275
81	89	84	0.973
81	90	85	2.1106955009844
81	91	86	2.1583113600213
81	92	87	0.973
81	93	88	4.4557673657061
81	94	89	0.973
80	21	19	2.5926332155941
80	22	20	1.5627312774537
80	23	21	1.5470325991511
80	24	22	1.5334775536321
80	26	23	2.1230435040314
80	27	24	2.4413351802388
80	28	25	-0.52092004170874
80	29	26	-3.1281069603283
80	30	27	-3.9739721601145
80	31	28	0.067846318008378
80	32	29	2.1890745820478
80	33	30	-4.2253952949007
80	34	31	-3.7069911340982
80	35	32	-0.16077614851178
80	36	33	-0.19963566960076
80	37	34	-0.0086044411375726
80	38	35	-0.016106204215757
80	39	36	-0.0054888046201211
80	40	37	-0.00022146526276336
80	41	38	0
80	42	39	0
80	43	40	0
80	45	41	0
80	46	42	0
80	47	43	0
80	48	44	0
80	49	45	0
80	50	46	1.9453049122046
80	51	47	2.4247317468049
80	52	48	2.074273188645
80	53	49	1.4834439461352
80	54	50	1.064840940341
80	55	51	1.4338872503722
80	56	52	1.4823798019206
80	58	53	1.4128849284956
80	59	54	0.13428542227063
80	60	55	0.062010349892081
80	61	56	0.25177681804635
80	62	57	0.77111588774715
80	63	58	-1.0852891162504
80	64	59	1.0468517293222
80	65	60	-0.42233376756776
80	66	61	-0.077983629028312
80	67	62	0.43067771538626
80	68	63	-0.73258755218703
80	69	64	0.22675774737727
80	70	65	0.35388939930126
80	71	66	-0.40353552151937
80	72	67	-1.6426167099882
80	73	68	-3.716042719956
80	74	69	-2.8080389681505
80	75	70	-1.9866396963319
80	76	71	0.0076751379761846
80	77	72	2.5561188762542
80	78	73	1.8950087713078
80	79	74	1.9641602390213
80	80	75	1.9930525186239
80	81	76	1.4435213892239
80	82	77	0.51270182300359
80	83	78	0.052386204083449
80	84	79	-0.38703907874878
80	85	80	0.1010216970928
80	86	81	-0.33149839171674
80	87	82	0.77411215933971
80	88	83	0.010553128947503
80	89	84	-0.33796728607267
80	90	85	0.021320982603356
80	91	86	0.034306182176806
80	92	87	-0.37120123067871
80	93	88	0.68830162261147
80	94	89	-0.63472635864746
76	20	18	1.8890440943418
76	21	19	4.4816773099359
76	22	20	6.0444085873896
76	23	21	7.5914411865408
76	24	22	9.1249187401729
76	26	23	11.247962244204
76	27	24	13.689297424443
76	28	25	13.168377382734
76	29	26	10.040270422406
76	30	27	6.0662982622915
76	31	28	6.1341445802999
76	32	29	8.3232191623477
76	33	30	4.097823867447
76	34	31	0.39083273334876
76	35	32	0.23005658483697
76	36	33	0.030420915236214
76	37	34	0.021816474098641
76	38	35	0.0057102698828844
76	39	36	0.00022146526276336
76	40	37	0
76	41	38	0
76	42	39	0
76	43	40	0
76	45	41	0
76	46	42	0
76	47	43	0
76	48	44	0
76	49	45	0
76	50	46	1.9453049122046
76	51	47	4.3700366590095
76	52	48	6.4443098476545
76	53	49	7.9277537937897
76	54	50	8.9925947341307
76	55	51	10.426481984503
76	56	52	11.908861786423
76	58	53	13.321746714919
76	59	54	13.45603213719
76	60	55	13.518042487082
76	61	56	13.769819305128
76	62	57	14.540935192875
76	63	58	13.455646076625
76	64	59	14.502497805947
76	65	60	14.080164038379
76	66	61	14.002180409351
76	67	62	14.432858124737
76	68	63	13.70027057255
76	69	64	13.927028319928
76	70	65	14.280917719229
76	71	66	13.87738219771
76	72	67	12.234765487721
76	73	68	8.5187227677653
76	74	69	5.7106837996148
76	75	70	3.724044103283
76	76	71	3.7317192412591
76	77	72	6.2878381175133
76	78	73	8.1828468888211
76	79	74	10.147007127842
76	80	75	12.140059646466
76	81	76	13.58358103569
[...]
74	72	67	-3.1436974664197
74	73	68	-0.13389756917295
74	74	69	-1.3441362529498
74	75	70	0.22066420265473
74	76	71	-0.97812942953315
74	77	72	1.6445616436424
74	78	73	1.7051522985799
74	79	74	2.5595300220186
74	80	75	1.4267320013372
74	81	76	1.3892694662558
74	82	77	2.1106536902254
74	83	78	0.064992004612716
74	84	79	-0.11105177470017
74	85	80	0.41513287411071
74	86	81	0.16799904066138
74	87	82	0.066183001501486
74	88	83	0.091727912705393
74	89	84	0.24887364380993
74	90	85	-0.34900561140384
74	91	86	-0.54133691100869
74	92	87	0.87104819742963
74	93	88	-0.69864015427884
74	94	89	0.22657994264737
74	95	90	-0.35805882071145
74	96	91	-0.16636577753816
74	97	92	-1.8623586220707
74	98	93	-2.8076738716578
74	99	94	-0.029385169805028
74	100	95	2.2640646139625
74	101	96	1.964000796061
74	102	97	1.4801103615019
74	103	98	-2.0364670042286
74	104	99	-3.6809408041416
74	105	100	-4.5
74	106	101	2.326482648775
74	107	102	2.1994512931444
74	108	103	1.5283418053528
74	109	104	-1.9310347877577
74	110	105	-4.4080896202016
74	111	106	1.7501843167003
74	112	107	0.35459589195038
74	113	108	2.3771232440602
74	114	109	1.789044125122
74	115	110	2.49184269174
74	116	111	2.1768920073751
74	117	112	2.4359088686993
74	118	113	2.499001296889
71	19	17	1.3134077784605
71	20	18	2.9789463185705
71	21	19	5.523221233231
71	22	20	8.009416364762
71	23	21	10.097135545197
71	24	22	12.663431448909
71	26	23	13.200869627834
71	27	24	13.874994833187
71	28	25	13.560564886619
71	29	26	9.1274912505291
71	30	27	4.9983327539402
71	31	28	0.51309073115649
71	32	29	0.14880305915203
71	33	30	0.080389173637811
71	34	31	0.011927724832008
71	35	32	0.00080742616715667
71	36	33	0
71	37	34	0
71	38	35	0
71	39	36	0
71	40	37	0
71	41	38	0
71	42	39	0
71	43	40	0
71	45	41	0
71	46	42	0
71	47	43	0
71	48	44	0
71	49	45	0
71	50	46	0
71	51	47	0
71	52	48	0
71	53	49	0
71	54	50	0
71	55	51	0
71	56	52	0
71	58	53	0
71	59	54	1.5400673178634
71	60	55	3.4534946179161
71	61	56	5.1456900774179
71	62	57	6.6598053311374
71	63	58	8.3894900045268
71	64	59	10.707541423818
71	65	60	12.956472317749
71	66	61	13.681327969094
71	67	62	13.974679894608
71	68	63	13.794527034161
71	69	64	13.151152512969
71	70	65	11.722427288816
71	71	66	7.9182018648099
71	72	67	4.7745043983902
71	73	68	4.6406068292173
71	74	69	3.2964705762674
71	75	70	3.5171347789222
71	76	71	2.539005349389
71	77	72	4.1835669930314
71	78	73	5.8887192916113
71	79	74	8.4482493136299
71	80	75	9.8749813149671
71	81	76	11.264250781223
71	82	77	13.374904471448
71	83	78	13.439896476061
71	84	79	13.328844701361
71	85	80	13.743977575472
71	86	81	13.911976616133
71	87	82	13.978159617634
71	88	83	14.06988753034
71	89	84	14.31876117415
71	90	85	13.969755562746
71	91	86	13.428418651737
71	92	87	14.299466849167
71	93	88	13.600826694888
71	94	89	13.827406637535
71	95	90	13.469347816824
71	96	91	13.302982039286
71	97	92	11.440623417215
71	98	93	8.6329495455573
71	99	94	8.6035643757523
71	100	95	10.867628989715
71	101	96	12.831629785776
71	102	97	14.311740147278
71	103	98	12.275273143049
71	104	99	8.5943323389075
71	105	100	4.0943323389075
71	106	101	6.4208149876825
71	107	102	8.6202662808269
71	108	103	10.14860808618
71	109	104	8.217573298422
71	110	105	3.8094836782205
71	111	106	5.5596679949208
71	112	107	5.9142638868712
71	113	108	8.2913871309314
71	114	109	10.080431256053
71	115	110	12.572273947793
71	116	111	14.749165955169
71	117	112	17.185074823868
71	118	113	19.684076120757
64	18	16	190.60598553674
64	19	17	190.17901033096
64	20	18	189.2105858719
64	21	19	187.41504410544
64	22	20	184.81126616488
64	23	21	181.91850955543
64	24	22	178.3370477349
64	26	23	174.0567912701
64	27	24	169.68269894169
64	28	25	165.70409064174
64	29	26	162.91547308816
64	30	27	161.38838989808
64	31	28	161.23163118091
64	32	29	161.18616909156
64	33	30	161.16160871077
64	34	31	161.15796457002
64	35	32	161.15771788638
64	36	33	161.15771788638
64	37	34	161.15771788638
64	38	35	161.15771788638
64	39	36	161.15771788638
64	40	37	161.15771788638
64	41	38	161.15771788638
64	42	39	161.15771788638
64	43	40	161.15771788638
64	45	41	161.15771788638
64	46	42	161.15771788638
64	47	43	161.15771788638
64	48	44	161.15771788638
64	49	45	161.15771788638
64	50	46	161.15771788638
64	51	47	161.15771788638
64	52	48	161.15771788638
64	53	49	161.15771788638
64	54	50	161.15771788638
64	55	51	161.15771788638
64	56	52	161.15771788638
64	58	53	161.15771788638
64	59	54	160.68719880962
64	60	55	159.63209226957
64	61	56	158.05998868916
64	62	57	156.02529486803
64	63	58	153.46215035767
64	64	59	150.19079822481
64	65	60	146.21888903479
64	66	61	141.97093467806
64	67	62	137.63539736645
64	68	63	133.35991397657
64	69	64	129.28383844403
64	70	65	125.65058280298
64	71	66	123.19641090808
64	72	67	121.71659835635
64	73	68	120.27527760667
64	74	69	119.06510669497
64	75	70	116.53653535368
64	76	71	116.88288410829
64	77	72	118.18425647379
64	78	73	120.00949726291
64	79	74	122.6280783975
64	80	75	125.68888292821
64	81	76	129.18029913718
64	82	77	133.32592401467
64	83	78	137.49222749107
64	84	79	141.62594364466
64	85	80	145.86271388092
64	86	81	150.11329808551
64	87	82	154.38325907959
64	88	83	158.68124054418
64	89	84	163.05524637683
64	90	85	167.10605817005
64	91	86	171.42343389696
64	92	87	176.06598332812
64	93	88	179.69040497872
64	94	89	184.05189981621
64	95	90	188.5833316824
64	96	91	197.81967112788
64	97	92	207.47100325366
64	98	93	212.61237771495
64	99	94	213.98829755189
64	100	95	215.51678435855
64	101	96	220.7253461056
64	102	97	227.55554307725
64	103	98	230.23224118364
64	104	99	231.41696006997
64	105	100	231.98135910151
64	106	101	232.96364834448
64	107	102	234.65594982278
64	108	103	236.97353606234
64	109	104	238.85605504398
64	110	105	239.728748852
64	111	106	239.64951526487
64	112	107	234.39167521306
64	113	108	226.13077112305
64	114	109	216.07797656065
64	115	110	203.52405891035
64	116	111	188.79642764962
64	117	112	172.24729240548
64	118	113	153.82761400632
63	18	16	310.86651536576
63	19	17	312.10887197595
63	20	18	314.92666680784
63	21	19	320.15109940313
63	22	20	327.72723190956
63	23	21	337.39699920775
63	24	22	349.53345691036
63	26	23	362.02077108812
63	27	24	375.1850885228
63	28	25	388.14692618429
63	29	26	396.83773969815
63	30	27	401.59694205204
63	31	28	402.08548547956
63	32	29	402.22716949786
63	33	30	402.30371269001
63	34	31	402.31506976824
63	35	32	402.3158385655
63	36	33	402.3158385655
63	37	34	402.3158385655
63	38	35	402.3158385655
63	39	36	402.3158385655
63	40	37	402.3158385655
63	41	38	402.3158385655
63	42	39	402.3158385655
63	43	40	402.3158385655
63	45	41	402.3158385655
63	46	42	402.3158385655
63	47	43	402.3158385655
63	48	44	402.3158385655
63	49	45	402.3158385655
63	50	46	402.3158385655
63	51	47	402.3158385655
63	52	48	402.3158385655
63	53	49	402.3158385655
63	54	50	402.3158385655
63	55	51	402.3158385655
63	56	52	402.3158385655
63	58	53	402.3158385655
63	59	54	403.78222593208
63	60	55	407.07049834687
63	61	56	411.97000815033
63	62	57	418.31119485573
63	63	58	426.29931460347
63	64	59	436.49458547825
63	65	60	448.82683236745
63	66	61	461.83158449026
63	67	62	475.1163239241
63	68	63	488.23116323032
63	69	64	500.73432854161
63	70	65	511.87916517073
63	71	66	519.40721921666
63	72	67	523.94647292189
63	73	68	528.35744317449
63	74	69	531.36283537568
63	75	70	530.86611318364
63	76	71	528.44281172117
63	77	72	524.46670792568
63	78	73	518.86786974492
63	79	74	510.83549827748
63	80	75	501.44662784868
63	81	76	490.73687684367
63	82	77	478.02037226764
63	83	78	465.24224914836
63	84	79	452.57030912139
63	85	80	439.49537905041
63	86	81	426.24834644533
63	87	82	412.93802310784
63	88	83	399.5403543536
63	89	84	385.90570242276
63	90	85	372.53748756439
63	91	86	359.82283874775
63	92	87	346.29766953802
63	93	88	333.20103394398
63	94	89	320.08449271881
63	95	90	307.43066879307
63	96	91	297.93900067478
63	97	92	291.83500788079
63	98	93	285.23522102556
63	99	94	276.74736723093
63	100	95	265.98917163021
63	101	96	254.32348343806
63	102	97	241.7488367022
63	103	98	229.91637524262
63	104	99	221.40520432273
63	105	100	217.35049001043
63	106	101	211.00489451217
63	107	102	202.55239832726
63	108	103	192.67310300091
63	109	104	184.67509692596
63	110	105	180.96739971484
63	111	106	175.55193066465
63	112	107	173.40406597906
63	113	108	172.641989956
63	114	109	172.22546969913
63	115	110	172.89108009804
63	116	111	173.67194108435
63	117	112	178.21166877325
63	118	113	185.13613460215
99	27	24	4.0005771101695
99	28	25	5.7814289939221
99	29	26	4.9284645543236
99	30	27	7.0627005474259
99	31	28	8.7517512733186
99	32	29	9.0185526662968
99	33	30	0.973
99	34	31	0.973
99	35	32	0.973
99	36	33	0.973
99	37	34	0.973
99	38	35	0.973
99	39	36	1.1110672960126
99	40	37	1.1100242699868
99	41	38	1.110008662882
99	42	39	0.973
99	43	40	0.973
99	45	41	0.973
99	46	42	1.1100048772543
99	47	43	0.973
99	48	44	0.973
99	49	45	0.973
99	50	46	0.973
99	51	47	0.973
99	52	48	0.973
99	53	49	0.973
99	54	50	0.973
99	55	51	0.973
99	56	52	0.973
99	58	53	0.973
99	59	54	0.973
99	60	55	0.973
99	61	56	1.209827967193
99	62	57	2.1493413997445
99	63	58	1.9427401476249
99	64	59	3.3821088242912
99	65	60	3.5352248017057
99	66	61	5.1299512736963
99	67	62	6.2134498592516
99	68	63	5.8841005141251
99	69	64	5.9786392304934
99	70	65	10.921139745438
99	71	66	0.973
99	72	67	3.3178900345636
99	73	68	0.973
99	74	69	0.973
99	75	70	0.973
99	76	71	0.973
99	77	72	1.2832083471446
99	78	73	1.206693558079
99	79	74	1.6043967344792
99	80	75	0.973
99	81	76	1.5821879845733
99	82	77	1.5874005097883
99	83	78	0.973
99	84	79	3.9931767827538
99	85	80	4.8909294832211
99	86	81	5.0349614465295
99	87	82	6.3813514540634
99	88	83	9.121960566763
99	89	84	9.2078118584173
99	90	85	0.973
99	91	86	4.2014761567508
99	92	87	1.2168969652831
99	93	88	3.0196435131448
99	94	89	2.4581846022611
99	95	90	2.1660673286979
99	96	91	0.973
99	97	92	3.5671618757603
99	98	93	0.973
99	99	94	4.3783098284721
99	100	95	0.973
99	101	96	1.803665070639
99	102	97	0.973
99	103	98	0.973
99	104	99	2.916288832977
99	105	100	0.973
99	106	101	6.7319967609552
99	107	102	7.401734980564
99	108	103	0.973
99	109	104	0.973
99	110	105	0.973
99	111	106	1.6140354539217
99	112	107	5.5505471702806
99	113	108	6.0722868567685
99	114	109	7.6939814411335
99	115	110	0.973
99	116	111	0.973
99	117	112	1.258773066461
99	118	113	1.3805406029327
99	119	114	4.0571890991305
99	120	115	5.09033076651
99	121	116	6.7470204314797
99	122	117	7.3212107924669
99	123	118	9.1821099565158
99	124	119	7.2812290408694
99	125	120	9.2938728797176
98	27	24	2.3628269135254
98	28	25	2.4896196572576
98	29	26	1.5838272215333
98	30	27	2.0457452738192
98	31	28	2.1811296718894
98	32	29	1.9195978537543
98	33	30	-4.5
98	34	31	-4.5
98	35	32	-3.8761410822967
98	36	33	-1.0855268183185
98	37	34	-0.6211149212312
98	38	35	-0.22411902083389
98	39	36	-0.048384287089624
98	40	37	-0.028590518447543
98	41	38	-0.00040700020276138
98	42	39	-0.00017994469816966
98	43	40	0
98	45	41	0
98	46	42	0.00010105292812995
98	47	43	-0.00010105292812995
98	48	44	0
98	49	45	0
98	50	46	0
98	51	47	0
98	52	48	0
98	53	49	0
98	54	50	0
98	55	51	0
98	56	52	0
98	58	53	0
98	59	54	0
98	60	55	0
98	61	56	0.55120522858733
98	62	57	1.7073436591265
98	63	58	0.89257440079833
98	64	59	1.7244215365878
98	65	60	1.3907130883541
98	66	61	1.8339312440483
98	67	62	1.8828452951275
98	68	63	1.4779217086965
98	69	64	1.3180921551306
98	70	65	2.3945399965325
98	71	66	-1.4037285763164
98	72	67	0.37104730140332
98	73	68	-2.7585958818168
98	74	69	-3.7494579628572
98	75	70	-0.69263962797843
98	76	71	-2.8745491302802
98	77	72	-0.028395746785271
98	78	73	-0.10408728599937
98	79	74	0.27994592786617
98	80	75	-1.5658734182287
98	81	76	0.43240161204594
98	82	77	0.36957927718759
98	83	78	-0.44460461519193
98	84	79	2.1229164750548
98	85	80	1.9859071387677
98	86	81	1.6326218932634
98	87	82	1.8259302231018
98	88	83	2.3157257424435
98	89	84	1.9757792697108
98	90	85	-0.47006649193354
98	91	86	0.57119518422987
98	92	87	-0.25297800358385
98	93	88	0.24392249269877
98	94	89	0.085054372274316
98	95	90	0.0043318714946512
98	96	91	-0.70970841010567
98	97	92	0.40806100761984
98	98	93	-0.45727604564745
98	99	94	0.62415919534396
98	100	95	-0.39777663657442
98	101	96	-0.08056322671473
98	102	97	-2.0341384021509
98	103	98	-3.1658155161033
98	104	99	0.53099742892664
98	105	100	-0.44055265050847
98	106	101	1.8416189008625
98	107	102	1.7564300582279
98	108	103	-0.60256609885588
98	109	104	-2.1711436266407
98	110	105	-4.2792985226604
98	111	106	0.13448868562948
98	112	107	2.0603326134617
98	113	108	1.84133133383
98	114	109	2.0337820356307
98	115	110	-4.5
98	116	111	-1.2344281839018
98	117	112	-0.11301458775997
98	118	113	-0.029029544303193
98	119	114	1.4143545286963
98	120	115	1.5901918977732
98	121	116	1.8890514685307
98	122	117	1.7641945149051
98	123	118	1.9935030841967
98	124	119	1.3006867524004
98	125	120	1.6079692374216
97	26	23	2.3017170013394
97	27	24	4.6645439148648
97	28	25	7.1541635721223
97	29	26	8.7379907936556
97	30	27	10.783736067475
97	31	28	12.964865739364
97	32	29	14.884463593118
97	33	30	10.384463593118
97	34	31	5.8844635931184
97	35	32	2.0083225108217
97	36	33	0.92279569250319
97	37	34	0.30168077127199
97	38	35	0.077561750438099
97	39	36	0.029177463348474
97	40	37	0.00058694490093104
97	41	38	0.00017994469816966
97	42	39	0
97	43	40	0
97	45	41	0
97	46	42	0.00010105292812995
97	47	43	0
97	48	44	0
97	49	45	0
97	50	46	0
97	51	47	0
97	52	48	0
97	53	49	0
97	54	50	0
97	55	51	0
97	56	52	0
97	58	53	0
97	59	54	0
97	60	55	0
97	61	56	0.55120522858733
97	62	57	2.2585488877138
97	63	58	3.1511232885122
97	64	59	4.8755448251
97	65	60	6.2662579134541
97	66	61	8.1001891575024
97	67	62	9.9830344526299
97	68	63	11.460956161326
97	69	64	12.779048316457
97	70	65	15.173588312989
97	71	66	13.769859736673
97	72	67	14.140907038076
97	73	68	11.38231115626
97	74	69	7.6328531934024
97	75	70	6.940213565424
97	76	71	4.0656644351438
97	77	72	4.0372686883585
97	78	73	3.9331814023592
97	79	74	4.2131273302254
97	80	75	2.6472539119966
97	81	76	3.0796555240425
97	82	77	3.4492348012301
97	83	78	3.0046301860382
97	84	79	5.127546661093
97	85	80	7.1134537998607
97	86	81	8.7460756931241
97	87	82	10.572005916226
97	88	83	12.887731658669
97	89	84	14.86351092838
97	90	85	14.393444436447
97	91	86	14.964639620676
97	92	87	14.711661617093
97	93	88	14.955584109791
97	94	89	15.040638482066
97	95	90	15.04497035356
97	96	91	14.335261943455
97	97	92	14.743322951074
97	98	93	14.286046905427
97	99	94	14.910206100771
97	100	95	14.512429464197
97	101	96	14.431866237482
97	102	97	12.397727835331
97	103	98	9.2319123192276
97	104	99	9.7629097481542
97	105	100	9.3223570976458
97	106	101	11.163975998508
97	107	102	12.920406056736
97	108	103	12.31783995788
97	109	104	10.14669633124
97	110	105	5.8673978085792
97	111	106	6.0018864942087
97	112	107	8.0622191076703
97	113	108	9.9035504415004
97	114	109	11.937332477131
97	115	110	7.437332477131
97	116	111	6.2029042932293
97	117	112	6.0898897054693
97	118	113	6.0608601611661
97	119	114	7.4752146898624
97	120	115	9.0654065876356
97	121	116	10.954458056166
97	122	117	12.718652571071
97	123	118	14.712155655268
97	124	119	16.012842407668
97	125	120	17.62081164509
94	24	22	190.60598553674
94	26	23	189.85772128369
94	27	24	188.34132658086
94	28	25	186.01558242624
94	29	26	183.19013323691
94	30	27	180.522260409
94	31	28	176.38464709999
94	32	29	171.55850129932
94	33	30	168.51624460644
94	34	31	166.76166746721
94	35	32	166.14808776023
94	36	33	165.86615659253
94	37	34	165.77398753191
94	38	35	165.75029098126
94	39	36	165.74137672604
94	40	37	165.74119740351
94	41	38	165.74114242707
94	42	39	165.74114242707
94	43	40	165.74114242707
94	45	41	165.74114242707
94	46	42	165.74111155353
94	47	43	165.74111155353
94	48	44	165.74111155353
94	49	45	165.74111155353
94	50	46	165.74111155353
94	51	47	165.74111155353
94	52	48	165.74111155353
94	53	49	165.74111155353
94	54	50	165.74111155353
94	55	51	165.74111155353
94	56	52	165.74111155353
94	58	53	165.74111155353
94	59	54	165.74111155353
94	60	55	165.74111155353
94	61	56	165.57270815178
94	62	57	164.88267965424
94	63	58	163.9199531531
94	64	59	162.43038394845
94	65	60	160.51592614914
94	66	61	158.04116840335
94	67	62	154.99116656292
94	68	63	151.48963227984
94	69	64	147.58579058409
94	70	65	142.88266854198
94	71	66	138.60899157917
94	72	67	134.22615097801
94	73	68	130.69831112047
94	74	69	128.33258035167
94	75	70	126.18152669483
94	76	71	124.921412396
94	77	72	123.67009909075
94	78	73	122.45104665687
94	79	74	121.14522762623
94	80	75	120.32194555752
94	81	76	119.35229447189
94	82	77	116.65408333032
94	83	78	116.89255078252
94	84	79	118.48646970721
94	85	80	120.6913236634
94	86	81	123.40221771511
94	87	82	126.67906883766
94	88	83	130.67369183424
94	89	84	135.28071843417
94	90	85	139.74386904148
94	91	86	144.38010536
94	92	87	148.87666227148
94	93	88	153.44520080154
94	94	89	158.03972121061
94	95	90	162.63556489276
94	96	91	166.82712828121
94	97	92	171.52295694288
94	98	93	176.16114937579
94	99	94	180.10324717212
94	100	95	184.79485248567
94	101	96	190.57637351016
94	102	97	199.66002675132
94	103	98	207.5873865152
94	104	99	212.88517482345
94	105	100	214.26745538126
94	106	101	216.13952732443
94	107	102	221.85639203449
94	108	103	227.73501142751
94	109	104	229.99065754449
94	110	105	230.79947162374
94	111	106	231.62682481453
94	112	107	232.80535620775
94	113	108	234.73259143447
94	114	109	237.46412215261
94	115	110	239.16790002626
94	116	111	240.23522446838
94	117	112	236.00427581526
94	118	113	229.97646295421
94	119	114	222.52873067129
94	120	115	213.48146572482
94	121	116	202.54300185488
94	122	117	189.84291930314
94	123	118	175.61555668612
94	124	119	160.52119092718
94	125	120	144.12194273326
93	24	22	310.86651536576
93	26	23	313.04371682468
93	27	24	317.45592380352
93	28	25	324.22306996333
93	29	26	332.49300369251
93	30	27	342.9459780564
93	31	28	355.22943338502
93	32	29	369.30933709553
93	33	30	379.23485638803
93	34	31	384.850955048
93	35	32	386.76319532719
93	36	33	387.64184259781
93	37	34	387.9290903477
93	38	35	388.00294138632
93	39	36	388.03072294051
93	40	37	388.03128180478
93	41	38	388.03145314055
93	42	39	388.03145314055
93	43	40	388.03145314055
93	45	41	388.03145314055
93	46	42	388.0315493589
93	47	43	388.0315493589
93	48	44	388.0315493589
93	49	45	388.0315493589
93	50	46	388.0315493589
93	51	47	388.0315493589
93	52	48	388.0315493589
93	53	49	388.0315493589
93	54	50	388.0315493589
93	55	51	388.0315493589
93	56	52	388.0315493589
93	58	53	388.0315493589
93	59	54	388.0315493589
93	60	55	388.0315493589
93	61	56	388.55638380881
93	62	57	390.70687912634
93	63	58	393.70724627082
93	64	59	398.34953512001
93	65	60	404.31600251623
93	66	61	412.02866215759
93	67	62	421.53408794753
93	68	63	432.44672866715
93	69	64	444.61452778867
93	70	65	459.04038856239
93	71	66	472.12987058422
93	72	67	485.57402296359
93	73	68	496.39550175573
93	74	69	503.65226690843
93	75	70	510.25052036329
93	76	71	514.1158602628
93	77	72	517.95420353856
93	78	73	521.69358814568
93	79	74	525.69912510797
93	80	75	528.21503065351
93	81	76	531.13410174805
93	82	77	531.28506622859
93	83	78	528.41331277333
93	84	79	523.53968339277
93	85	80	516.77640011173
93	86	81	508.46086321863
93	87	82	498.40928027847
93	88	83	486.15596669691
93	89	84	472.02413456756
93	90	85	458.33982391428
93	91	86	444.11115635968
93	92	87	430.10318787323
93	93	88	415.86213857577
93	94	89	401.54009855943
93	95	90	387.21393363596
93	96	91	373.5065284713
93	97	92	359.53289761599
93	98	93	346.0204216774
93	99	94	331.65280122001
93	100	95	317.92108091331
93	101	96	304.86363091892
93	102	97	296.49637910246
93	103	98	291.76448994399
93	104	99	283.99854080038
93	105	100	274.78252558573
93	106	101	263.8216820827
93	107	102	252.24118580347
93	108	103	241.41842879242
93	109	104	231.65194278355
93	110	105	225.84131973169
93	111	106	219.89750934834
93	112	107	211.92198387572
93	113	108	202.20798417104
93	114	109	190.58881563461
93	115	110	183.35020294771
93	116	111	177.25491861361
93	117	112	173.6194634036
93	118	113	172.99675857511
93	119	114	172.30969840141
93	120	115	172.36313705217
93	121	116	172.94309587481
93	122	117	173.61645595641
93	123	118	177.19052867087
93	124	119	182.50602940813
93	125	120	188.9497811365

