version 3
run Default-0-20230505-15:03:54-136849
attr configname Default
attr datetime 20230505-15:03:54
attr datetimef 20230505-150354
attr experiment Default
attr inifile omnetpp.ini
attr iterationvars ""
attr iterationvarsd ""
attr iterationvarsf ""
attr measurement ""
attr network pavillonsNetwork
attr processid 136849
attr repetition 0
attr replication #0
attr resultdir results
attr runnumber 0
attr seedset 0
config image-path ../veins-veins-5.2/images
config cmdenv-express-mode true
config cmdenv-autoflush true
config cmdenv-status-frequency 1s
config **.cmdenv-log-level info
config image-path ../../images
config network pavillonsNetwork
config debug-on-errors true
config print-undisposed true
config sim-time-limit 200s
config **.scalar-recording true
config **.vector-recording true
config *.playgroundSizeX 2500m
config *.playgroundSizeY 2500m
config *.playgroundSizeZ 50m
config *.annotations.draw true
config *.obstacles.debug false
config *.manager.updateInterval 1s
config *.manager.host "\"localhost\""
config *.manager.port 9999
config *.manager.autoShutdown true
config *.manager.launchConfig "xmldoc(\"pavillons.launchd.xml\")"
config *.rsu[0].mobility.x 2000
config *.rsu[0].mobility.y 2000
config *.rsu[0].mobility.z 3
config *.rsu[*].applType "\"TraCIDemoRSU11p\""
config *.rsu[*].appl.headerLength "80 bit"
config *.rsu[*].appl.sendBeacons false
config *.rsu[*].appl.dataOnSch false
config *.rsu[*].appl.beaconInterval 1s
config *.rsu[*].appl.beaconUserPriority 7
config *.rsu[*].appl.dataUserPriority 5
config *.rsu[*].nic.phy80211p.antennaOffsetZ "0 m"
config *.connectionManager.sendDirect true
config *.connectionManager.maxInterfDist 2600m
config *.connectionManager.drawMaxIntfDist false
config *.**.nic.mac1609_4.useServiceChannel false
config *.**.nic.mac1609_4.txPower 20mW
config *.**.nic.mac1609_4.bitrate 6Mbps
config *.**.nic.phy80211p.minPowerLevel -110dBm
config *.**.nic.phy80211p.useNoiseFloor true
config *.**.nic.phy80211p.noiseFloor -98dBm
config *.**.nic.phy80211p.decider "xmldoc(\"config.xml\")"
config *.**.nic.phy80211p.analogueModels "xmldoc(\"config.xml\")"
config *.**.nic.phy80211p.usePropagationDelay true
config *.**.nic.phy80211p.antenna "xmldoc(\"antenna.xml\", \"/root/Antenna[@id='monopole']\")"
config *.node[*].nic.phy80211p.antennaOffsetY "0 m"
config *.node[*].nic.phy80211p.antennaOffsetZ "1.895 m"
config *.node[*].applType "\"MyVeinsApp\""
config *.node[*].appl.headerLength "80 bit"
config *.node[*].appl.sendBeacons false
config *.node[*].appl.dataOnSch false
config *.node[*].appl.beaconInterval 1s
config *.node[*].veinsmobility.x 0
config *.node[*].veinsmobility.y 0
config *.node[*].veinsmobility.z 0
config *.node[*].veinsmobility.setHostSpeed false
config *.node[*0].veinsmobility.accidentCount 10
config *.node[*0].veinsmobility.accidentStart 73s
config *.node[*0].veinsmobility.accidentDuration 50s

vector 0 pavillonsNetwork.node[0].veinsmobility posx ETV
vector 1 pavillonsNetwork.node[0].veinsmobility posy ETV
0	2	1	172.41000787992
1	2	1	212.59744631541
vector 2 pavillonsNetwork.node[1].veinsmobility posx ETV
vector 3 pavillonsNetwork.node[1].veinsmobility posy ETV
vector 4 pavillonsNetwork.node[0].veinsmobility speed ETV
0	3	2	172.5303890029
1	3	2	210.32696690728
2	3	2	297.80879831187
3	3	2	197.97174475385
4	3	2	2.2737992957234
vector 5 pavillonsNetwork.node[2].veinsmobility posx ETV
vector 6 pavillonsNetwork.node[2].veinsmobility posy ETV
vector 7 pavillonsNetwork.node[0].veinsmobility acceleration ETV
vector 8 pavillonsNetwork.node[0].veinsmobility co2emission ETV
vector 9 pavillonsNetwork.node[1].veinsmobility speed ETV
0	4	3	172.74158041786
1	4	3	206.34373642268
2	4	3	296.74821961989
3	4	3	199.23698142738
4	4	3	3.9890547512332
5	4	3	222.06043106416
6	4	3	234.55468117897
7	4	3	1.7152554555098
8	4	3	2.9572775987046
9	4	3	1.652282136376
vector 10 pavillonsNetwork.node[3].veinsmobility posx ETV
vector 11 pavillonsNetwork.node[3].veinsmobility posy ETV
vector 12 pavillonsNetwork.node[1].veinsmobility acceleration ETV
vector 13 pavillonsNetwork.node[1].veinsmobility co2emission ETV
vector 14 pavillonsNetwork.node[2].veinsmobility speed ETV
0	5	4	173.08725033917
1	5	4	199.8241391727
2	5	4	294.68658717357
3	5	4	202.70014126759
4	5	4	6.5291301838355
5	5	4	223.5604142445
6	5	4	234.3452007693
7	5	4	2.5400754326023
8	5	4	5.4475378523348
9	5	4	4.0302121120971
10	5	4	290.85928889175
11	5	4	225.60431093681
12	5	4	2.3779299757211
13	5	4	3.6201031488954
14	5	4	1.5147052048706
vector 15 pavillonsNetwork.node[4].veinsmobility posx ETV
vector 16 pavillonsNetwork.node[4].veinsmobility posy ETV
vector 17 pavillonsNetwork.node[2].veinsmobility acceleration ETV
vector 18 pavillonsNetwork.node[2].veinsmobility co2emission ETV
vector 19 pavillonsNetwork.node[3].veinsmobility speed ETV
0	6	5	173.5484801703
1	6	5	191.12499425633
2	6	5	291.65743124632
3	6	5	207.76407688615
4	6	5	8.7118647777243
5	6	5	227.07828802784
6	6	5	233.85391149956
7	6	5	2.1827345938887
8	6	5	6.1741223065018
9	6	5	5.9006006303476
10	6	5	291.18269245167
11	6	5	227.09783497194
12	6	5	1.8703885182505
13	6	5	4.0733996277683
14	6	5	3.5524009865941
15	6	5	211.08820452257
16	6	5	247.4531831351
17	6	5	2.0376957817236
18	6	5	3.0300388559467
19	6	5	1.528189688758
vector 20 pavillonsNetwork.node[3].veinsmobility acceleration ETV
vector 21 pavillonsNetwork.node[3].veinsmobility co2emission ETV
vector 22 pavillonsNetwork.node[4].veinsmobility speed ETV
0	7	6	175.67674710459
1	7	6	180.96944590215
2	7	6	285.39555385236
3	7	6	212.57701017963
4	7	6	10.432003660942
5	7	6	233.03598055455
6	7	6	233.02188892255
7	7	6	1.7201388832182
8	7	6	6.0427391267003
9	7	6	8.1261492665624
10	7	6	291.81905575354
11	7	6	230.03665199263
12	7	6	2.2255486362148
13	7	6	5.9100952127211
14	7	6	6.0161660460755
15	7	6	211.53164783105
16	7	6	249.0455753167
17	7	6	2.4637650594814
18	7	6	4.9925385572515
19	7	6	3.0070288542425
20	7	6	1.4788391654845
21	7	6	2.3292766763502
22	7	6	1.652940650261
vector 23 pavillonsNetwork.node[5].veinsmobility posx ETV
vector 24 pavillonsNetwork.node[5].veinsmobility posy ETV
vector 25 pavillonsNetwork.node[4].veinsmobility acceleration ETV
vector 26 pavillonsNetwork.node[4].veinsmobility co2emission ETV
0	8	7	179.41541462146
1	8	7	168.70125776096
2	8	7	276.85060446428
3	8	7	213.97362996682
4	8	7	12.830036515137
5	8	7	241.37923215944
6	8	7	231.38553293674
7	8	7	2.3980328541948
8	8	7	9.3388311865557
9	8	7	8.6634156733288
10	8	7	292.95575312234
11	8	7	235.28608351222
12	8	7	0.53726640676637
13	8	7	2.7097402464938
14	8	7	8.5748588066315
15	8	7	212.64204236796
16	8	7	253.03297019959
17	8	7	2.558692760556
18	8	7	6.8695389405201
19	8	7	5.3712742020609
20	8	7	2.3642453478184
21	8	7	4.4438871268835
22	8	7	4.1390099541517
23	8	7	169.53875
24	8	7	227.3675
25	8	7	2.4860693038907
26	8	7	3.7960737624968
vector 27 pavillonsNetwork.node[6].veinsmobility posx ETV
vector 28 pavillonsNetwork.node[6].veinsmobility posy ETV
vector 29 pavillonsNetwork.node[7].veinsmobility posx ETV
vector 30 pavillonsNetwork.node[7].veinsmobility posy ETV
vector 31 pavillonsNetwork.node[5].veinsmobility speed ETV
0	9	8	184.92931651593
1	9	8	154.3539628276
2	9	8	266.24847252035
3	9	8	215.47994379492
4	9	8	15.373526183865
5	9	8	250.34939124035
6	9	8	226.5180047533
7	9	8	2.5434896687279
8	9	8	11.610953549582
9	9	8	10.70997783856
10	9	8	294.58147986214
11	9	8	242.9958583658
12	9	8	2.0465621652314
13	9	8	7.022525456912
14	9	8	10.206826178357
15	9	8	214.24013515658
16	9	8	258.77167549387
17	9	8	1.6319673717255
18	9	8	5.7149944116614
19	9	8	7.8813377023907
20	9	8	2.5100635003299
21	9	8	6.3030407006077
22	9	8	5.9569114759332
23	9	8	169.7159110985
24	9	8	229.286509019
25	9	8	1.8179015217815
26	9	8	4.0266963401678
27	9	8	278.02135529419
28	9	8	213.80729378334
29	9	8	172.41000787992
30	9	8	212.59744631541
31	9	8	1.9275127517292
vector 32 pavillonsNetwork.node[5].veinsmobility acceleration ETV
vector 33 pavillonsNetwork.node[5].veinsmobility co2emission ETV
vector 34 pavillonsNetwork.node[6].veinsmobility speed ETV
vector 35 pavillonsNetwork.node[7].veinsmobility speed ETV
0	10	9	189.20406793558
1	10	9	143.47478677408
2	10	9	254.68251793559
3	10	9	220.53032859224
4	10	9	11.689554900697
5	10	9	260.99757092371
6	10	9	221.01718257856
7	10	9	-3.6839712831681
8	10	9	0.973
9	10	9	12.684935880802
10	10	9	295.75406284524
11	10	9	252.26245773807
12	10	9	1.9749580422416
13	10	9	7.9480601640895
14	10	9	11.990620523901
15	10	9	216.28574044385
16	10	9	266.11738531479
17	10	9	1.7837943455437
18	10	9	7.0023852808265
19	10	9	9.3408129044343
20	10	9	1.4594752020435
21	10	9	4.9213660165796
22	10	9	7.6250200850656
23	10	9	170.05209551913
24	10	9	232.92805866322
25	10	9	1.6681086091325
26	10	9	4.5841510642487
27	10	9	276.49583191927
28	10	9	214.02403480928
29	10	9	172.53964603206
30	10	9	210.15237230678
31	10	9	3.6576864964096
32	10	9	1.7301737446804
33	10	9	2.816119742767
34	10	9	1.5410411437973
35	10	9	2.448649187875
vector 36 pavillonsNetwork.node[8].veinsmobility posx ETV
vector 37 pavillonsNetwork.node[8].veinsmobility posy ETV
vector 38 pavillonsNetwork.node[6].veinsmobility acceleration ETV
vector 39 pavillonsNetwork.node[6].veinsmobility co2emission ETV
vector 40 pavillonsNetwork.node[7].veinsmobility acceleration ETV
vector 41 pavillonsNetwork.node[7].veinsmobility co2emission ETV
vector 42 pavillonsNetwork.node[8].veinsmobility speed ETV
13	11	10	4.1922365548939
13	12	11	3.9880823460144
12	11	10	0.68767222616481
12	12	11	0.58105162016582
9	11	10	13.372608106967
9	12	11	13.953659727132
3	11	10	226.91233011375
3	12	11	230.27781706421
2	11	10	242.93301569814
2	12	11	229.58895232918
vector 43 pavillonsNetwork.node[9].veinsmobility posx ETV
vector 44 pavillonsNetwork.node[9].veinsmobility posy ETV
vector 45 pavillonsNetwork.node[8].veinsmobility acceleration ETV
vector 46 pavillonsNetwork.node[8].veinsmobility co2emission ETV
vector 47 pavillonsNetwork.node[10].veinsmobility posx ETV
vector 48 pavillonsNetwork.node[10].veinsmobility posy ETV
vector 49 pavillonsNetwork.node[11].veinsmobility posx ETV
vector 50 pavillonsNetwork.node[11].veinsmobility posy ETV
vector 51 pavillonsNetwork.node[9].veinsmobility speed ETV
vector 52 pavillonsNetwork.node[9].veinsmobility acceleration ETV
vector 53 pavillonsNetwork.node[9].veinsmobility co2emission ETV
vector 54 pavillonsNetwork.node[10].veinsmobility speed ETV
vector 55 pavillonsNetwork.node[11].veinsmobility speed ETV
vector 56 pavillonsNetwork.node[12].veinsmobility posx ETV
vector 57 pavillonsNetwork.node[12].veinsmobility posy ETV
vector 58 pavillonsNetwork.node[10].veinsmobility acceleration ETV
vector 59 pavillonsNetwork.node[10].veinsmobility co2emission ETV
vector 60 pavillonsNetwork.node[11].veinsmobility acceleration ETV
vector 61 pavillonsNetwork.node[11].veinsmobility co2emission ETV
vector 62 pavillonsNetwork.node[13].veinsmobility posx ETV
vector 63 pavillonsNetwork.node[13].veinsmobility posy ETV
vector 64 pavillonsNetwork.node[12].veinsmobility speed ETV
vector 65 pavillonsNetwork.node[14].veinsmobility posx ETV
vector 66 pavillonsNetwork.node[14].veinsmobility posy ETV
vector 67 pavillonsNetwork.node[15].veinsmobility posx ETV
vector 68 pavillonsNetwork.node[15].veinsmobility posy ETV
vector 69 pavillonsNetwork.node[12].veinsmobility acceleration ETV
vector 70 pavillonsNetwork.node[12].veinsmobility co2emission ETV
vector 71 pavillonsNetwork.node[13].veinsmobility speed ETV
vector 72 pavillonsNetwork.node[16].veinsmobility posx ETV
vector 73 pavillonsNetwork.node[16].veinsmobility posy ETV
vector 74 pavillonsNetwork.node[13].veinsmobility acceleration ETV
vector 75 pavillonsNetwork.node[13].veinsmobility co2emission ETV
vector 76 pavillonsNetwork.node[14].veinsmobility speed ETV
vector 77 pavillonsNetwork.node[15].veinsmobility speed ETV
vector 78 pavillonsNetwork.node[17].veinsmobility posx ETV
vector 79 pavillonsNetwork.node[17].veinsmobility posy ETV
vector 80 pavillonsNetwork.node[14].veinsmobility acceleration ETV
vector 81 pavillonsNetwork.node[14].veinsmobility co2emission ETV
vector 82 pavillonsNetwork.node[15].veinsmobility acceleration ETV
vector 83 pavillonsNetwork.node[15].veinsmobility co2emission ETV
vector 84 pavillonsNetwork.node[16].veinsmobility speed ETV
vector 85 pavillonsNetwork.node[18].veinsmobility posx ETV
vector 86 pavillonsNetwork.node[18].veinsmobility posy ETV
vector 87 pavillonsNetwork.node[16].veinsmobility acceleration ETV
vector 88 pavillonsNetwork.node[16].veinsmobility co2emission ETV
vector 89 pavillonsNetwork.node[17].veinsmobility speed ETV
vector 90 pavillonsNetwork.node[19].veinsmobility posx ETV
vector 91 pavillonsNetwork.node[19].veinsmobility posy ETV
vector 92 pavillonsNetwork.node[17].veinsmobility acceleration ETV
vector 93 pavillonsNetwork.node[17].veinsmobility co2emission ETV
vector 94 pavillonsNetwork.node[18].veinsmobility speed ETV
vector 95 pavillonsNetwork.node[20].veinsmobility posx ETV
vector 96 pavillonsNetwork.node[20].veinsmobility posy ETV
vector 97 pavillonsNetwork.node[18].veinsmobility acceleration ETV
vector 98 pavillonsNetwork.node[18].veinsmobility co2emission ETV
vector 99 pavillonsNetwork.node[19].veinsmobility speed ETV
vector 100 pavillonsNetwork.node[21].veinsmobility posx ETV
vector 101 pavillonsNetwork.node[21].veinsmobility posy ETV
vector 102 pavillonsNetwork.node[19].veinsmobility acceleration ETV
vector 103 pavillonsNetwork.node[19].veinsmobility co2emission ETV
vector 104 pavillonsNetwork.node[20].veinsmobility speed ETV
vector 105 pavillonsNetwork.node[22].veinsmobility posx ETV
vector 106 pavillonsNetwork.node[22].veinsmobility posy ETV
vector 107 pavillonsNetwork.node[20].veinsmobility acceleration ETV
vector 108 pavillonsNetwork.node[20].veinsmobility co2emission ETV
vector 109 pavillonsNetwork.node[21].veinsmobility speed ETV
8	11	10	0.973
8	12	11	0.973
8	13	12	1.6240115652098
8	14	13	3.2940414545192
8	15	14	5.5841356398743
8	16	15	4.5291585524931
8	17	16	7.7524544452106
8	18	17	10.37396016929
8	19	18	10.62875971193
8	20	19	7.8937327499729
8	21	20	11.632686803871
8	22	21	15.303861023693
8	23	22	16.897571933899
8	24	23	3.7852797112435
8	25	24	5.2506948754221
7	11	10	-4.3166971061515
7	12	11	-3.7852364382939
7	13	12	0.33733121589758
7	14	13	1.4688386279158
7	15	14	2.2169354937272
7	16	15	1.3519775079098
7	17	16	2.2172360560158
7	18	17	2.5312889968278
7	19	18	2.1872653045459
7	20	19	1.3208659525029
7	21	20	1.9382744400995
7	22	21	2.3595149683533
7	23	22	2.3290013018763
7	24	23	0.045656434103904
7	25	24	0.28636649530381
4	11	10	7.3728577945455
4	12	11	3.5876213562515
4	13	12	3.9249525721491
4	14	13	5.393791200065
4	15	14	7.6107266937922
4	16	15	8.9627042017019
4	17	16	11.179940257718
4	18	17	13.711229254546
4	19	18	15.898494559091
4	20	19	17.219360511594
4	21	20	19.157634951694
4	22	21	21.517149920047
4	23	22	23.846151221923
4	24	23	23.891807656027
4	25	24	24.178174151331
1	11	10	136.59629380721
1	12	11	133.33207921306
1	13	12	135.53677519263
1	14	13	140.57031793844
1	15	14	147.65346301755
1	16	15	155.994770694
1	17	16	166.41892416576
1	18	17	179.51473608215
1	19	18	195.09473192686
1	20	19	212.28845070533
1	21	20	231.3979235475
1	22	21	252.54654724802
1	23	22	275.46223410958
1	24	23	298.4070409939
1	25	24	321.42909667794
0	11	10	191.872339161
0	12	11	191.51370837551
0	13	12	188.84182698741
0	14	13	186.90146075262
0	15	14	184.11889464276
0	16	15	180.84183168361
0	17	16	176.80691631494
0	18	17	172.76490954346
0	19	18	170.14006397735
0	20	19	169.22762782327
0	21	20	169.91083489176
0	22	21	173.60873554316
0	23	22	180.21020843366
0	24	23	186.87277657764
0	25	24	194.26467883255
70	18	17	2.1938920277467
70	19	18	4.3378817580693
70	20	19	5.3245634935734
70	21	20	5.199026647013
70	22	21	5.7821918794364
70	23	22	5.6032570775711
70	24	23	8.6963037083501
70	25	24	10.782438531163
69	18	17	1.3001725175185
69	19	18	2.3139125195099
69	20	19	2.1306267366046
69	21	20	1.6382067191415
69	22	21	1.5766648343997
69	23	22	1.3046075610677
69	24	23	1.9837334444281
69	25	24	2.1887489315355
64	17	16	1.6906343355775
64	18	17	2.990806853096
64	19	18	5.3047193726059
64	20	19	7.4353461092105
64	21	20	9.073552828352
64	22	21	10.650217662752
64	23	22	11.954825223819
64	24	23	13.938558668247
64	25	24	16.127307599783
57	16	15	145.34641003346
57	17	16	146.91983038116
57	18	17	149.70328050973
57	19	18	154.64021644204
57	20	19	161.5600598489
57	21	20	170.08667787198
57	22	21	180.29666248027
57	23	22	191.96820887171
57	24	23	205.8860113219
57	25	24	221.99662374992
56	16	15	185.02527025822
56	17	16	184.40711807625
56	18	17	183.31357954863
56	19	18	181.37399759061
56	20	19	178.65538758467
56	21	20	175.56231845064
56	22	21	172.54443366135
56	23	22	170.3059822821
56	24	23	169.567392434
56	25	24	169.04295112588
vector 110 pavillonsNetwork.node[23].veinsmobility posx ETV
vector 111 pavillonsNetwork.node[23].veinsmobility posy ETV
vector 112 pavillonsNetwork.node[21].veinsmobility acceleration ETV
vector 113 pavillonsNetwork.node[21].veinsmobility co2emission ETV
vector 114 pavillonsNetwork.node[22].veinsmobility speed ETV
vector 115 pavillonsNetwork.node[22].veinsmobility acceleration ETV
vector 116 pavillonsNetwork.node[22].veinsmobility co2emission ETV
vector 117 pavillonsNetwork.node[23].veinsmobility speed ETV
vector 118 pavillonsNetwork.node[24].veinsmobility posx ETV
vector 119 pavillonsNetwork.node[24].veinsmobility posy ETV
vector 120 pavillonsNetwork.node[23].veinsmobility acceleration ETV
vector 121 pavillonsNetwork.node[23].veinsmobility co2emission ETV
vector 122 pavillonsNetwork.node[25].veinsmobility posx ETV
vector 123 pavillonsNetwork.node[25].veinsmobility posy ETV
vector 124 pavillonsNetwork.node[24].veinsmobility speed ETV
vector 125 pavillonsNetwork.node[24].veinsmobility acceleration ETV
vector 126 pavillonsNetwork.node[24].veinsmobility co2emission ETV
vector 127 pavillonsNetwork.node[25].veinsmobility speed ETV
vector 128 pavillonsNetwork.node[26].veinsmobility posx ETV
vector 129 pavillonsNetwork.node[26].veinsmobility posy ETV
vector 130 pavillonsNetwork.node[25].veinsmobility acceleration ETV
vector 131 pavillonsNetwork.node[25].veinsmobility co2emission ETV
vector 132 pavillonsNetwork.node[27].veinsmobility posx ETV
vector 133 pavillonsNetwork.node[27].veinsmobility posy ETV
vector 134 pavillonsNetwork.node[26].veinsmobility speed ETV
vector 135 pavillonsNetwork.node[26].veinsmobility acceleration ETV
vector 136 pavillonsNetwork.node[26].veinsmobility co2emission ETV
vector 137 pavillonsNetwork.node[27].veinsmobility speed ETV
vector 138 pavillonsNetwork.node[28].veinsmobility posx ETV
vector 139 pavillonsNetwork.node[28].veinsmobility posy ETV
vector 140 pavillonsNetwork.node[27].veinsmobility acceleration ETV
vector 141 pavillonsNetwork.node[27].veinsmobility co2emission ETV
39	11	10	2.5285372233058
39	12	11	2.9954551759172
39	13	12	4.887483648004
39	14	13	6.4079551971147
39	15	14	5.0022647363182
39	16	15	6.1202318975994
39	17	16	0.973
39	18	17	0.973
39	19	18	0.973
39	20	19	0.973
39	21	20	0.973
39	22	21	1.1115077859542
39	23	22	1.1118707872226
39	24	23	0.973
39	25	24	0.973
39	26	25	2.3871861489154
39	27	26	4.2461743309265
39	28	27	3.8073777935206
39	29	28	6.1480876784209
39	30	29	2.2066425152795
39	31	30	0.973
39	32	31	3.0548193970664
39	33	32	1.5807387471064
39	34	33	6.9581905390254
38	11	10	1.6439835200086
38	12	11	1.471595842368
38	13	12	2.1016049905447
38	14	13	2.2179987480631
38	15	14	1.326706381212
38	16	15	1.5067398780491
38	17	16	-2.5453642271456
38	18	17	-3.5818645827589
38	19	18	-3.434246940352
38	20	19	-1.9563585760635
38	21	20	-0.15443249477907
38	22	21	-0.083690233539428
38	23	22	-0.012376799058443
38	24	23	-0.041336650345946
38	25	24	0
38	26	25	2.2032720476622
38	27	26	2.5366576599656
38	28	27	1.5609465687769
38	29	28	2.2241574415937
38	30	29	0.28648545370187
38	31	30	-3.7289612888009
38	32	31	1.09213338175
38	33	32	0.096240787347778
38	34	33	2.5280241468223
34	11	10	3.185024663806
34	12	11	4.6566205061739
34	13	12	6.7582254967187
34	14	13	8.9762242447818
34	15	14	10.302930625994
34	16	15	11.809670504043
34	17	16	9.2643062768973
34	18	17	5.6824416941384
34	19	18	2.2481947537864
34	20	19	0.29183617772288
34	21	20	0.13740368294382
34	22	21	0.053713449404389
34	23	22	0.041336650345946
34	24	23	0
34	25	24	0
34	26	25	2.2032720476622
34	27	26	4.7399297076277
34	28	27	6.3008762764046
34	29	28	8.5250337179983
34	30	29	8.8115191717002
34	31	30	5.0825578828992
34	32	31	6.1746912646493
34	33	32	6.2709320519971
34	34	33	8.7989561988193
28	11	10	214.47199527813
28	12	11	215.12692958018
28	13	12	216.86981953479
28	14	13	220.78783174931
28	15	14	225.70484706937
28	16	15	229.63349714633
28	17	16	230.91057117398
28	18	17	231.69388926432
28	19	18	232.00380034059
28	20	19	232.04402962401
28	21	20	232.0629705646
28	22	21	232.07037490218
28	23	22	232.07607311217
28	24	23	232.07607311217
28	25	24	232.07607311217
28	26	25	232.39996792022
28	27	26	233.16939756887
28	28	27	234.4148214267
28	29	28	236.3473353865
28	30	29	238.36591818405
28	31	30	239.53025360795
28	32	31	239.7343647339
28	33	32	234.28684220701
28	34	33	225.52023511186
27	11	10	273.34287938852
27	12	11	268.73314949333
27	13	12	262.28106563893
27	14	13	254.20844504327
27	15	14	245.15603690612
27	16	15	234.21782843764
27	17	16	225.04316645489
27	18	17	219.41570982488
27	19	18	217.18926929918
27	20	19	216.90025701862
27	21	20	216.76418289623
27	22	21	216.71098919478
27	23	22	216.67005253065
27	24	23	216.67005253065
27	25	24	216.67005253065
27	26	25	214.49039704437
27	27	26	209.81285535494
27	28	27	203.63598766273
27	29	28	195.3335578799
27	30	29	186.75747570753
27	31	30	181.81071985304
27	32	31	175.78874933192
27	33	32	173.39439503755
27	34	33	172.58566744574
vector 142 pavillonsNetwork.node[29].veinsmobility posx ETV
vector 143 pavillonsNetwork.node[29].veinsmobility posy ETV
vector 144 pavillonsNetwork.node[30].veinsmobility posx ETV
vector 145 pavillonsNetwork.node[30].veinsmobility posy ETV
vector 146 pavillonsNetwork.node[31].veinsmobility posx ETV
vector 147 pavillonsNetwork.node[31].veinsmobility posy ETV
vector 148 pavillonsNetwork.node[28].veinsmobility speed ETV
vector 149 pavillonsNetwork.node[32].veinsmobility posx ETV
vector 150 pavillonsNetwork.node[32].veinsmobility posy ETV
vector 151 pavillonsNetwork.node[28].veinsmobility acceleration ETV
vector 152 pavillonsNetwork.node[28].veinsmobility co2emission ETV
vector 153 pavillonsNetwork.node[29].veinsmobility speed ETV
vector 154 pavillonsNetwork.node[30].veinsmobility speed ETV
vector 155 pavillonsNetwork.node[31].veinsmobility speed ETV
vector 156 pavillonsNetwork.node[29].veinsmobility acceleration ETV
vector 157 pavillonsNetwork.node[29].veinsmobility co2emission ETV
vector 158 pavillonsNetwork.node[30].veinsmobility acceleration ETV
vector 159 pavillonsNetwork.node[30].veinsmobility co2emission ETV
vector 160 pavillonsNetwork.node[31].veinsmobility acceleration ETV
vector 161 pavillonsNetwork.node[31].veinsmobility co2emission ETV
vector 162 pavillonsNetwork.node[32].veinsmobility speed ETV
vector 163 pavillonsNetwork.node[33].veinsmobility posx ETV
vector 164 pavillonsNetwork.node[33].veinsmobility posy ETV
vector 165 pavillonsNetwork.node[34].veinsmobility posx ETV
vector 166 pavillonsNetwork.node[34].veinsmobility posy ETV
vector 167 pavillonsNetwork.node[32].veinsmobility acceleration ETV
vector 168 pavillonsNetwork.node[32].veinsmobility co2emission ETV
vector 169 pavillonsNetwork.node[35].veinsmobility posx ETV
vector 170 pavillonsNetwork.node[35].veinsmobility posy ETV
vector 171 pavillonsNetwork.node[33].veinsmobility speed ETV
vector 172 pavillonsNetwork.node[34].veinsmobility speed ETV
vector 173 pavillonsNetwork.node[36].veinsmobility posx ETV
vector 174 pavillonsNetwork.node[36].veinsmobility posy ETV
vector 175 pavillonsNetwork.node[33].veinsmobility acceleration ETV
vector 176 pavillonsNetwork.node[33].veinsmobility co2emission ETV
vector 177 pavillonsNetwork.node[34].veinsmobility acceleration ETV
vector 178 pavillonsNetwork.node[34].veinsmobility co2emission ETV
vector 179 pavillonsNetwork.node[35].veinsmobility speed ETV
41	11	10	3.1877840566213
41	12	11	3.6276694182737
41	13	12	6.1985282288475
41	14	13	5.4643309724723
41	15	14	6.6171602404634
41	16	15	7.3308470439049
41	17	16	0.973
41	18	17	0.973
41	19	18	0.973
41	20	19	0.973
41	21	20	1.5730996818691
41	22	21	0.973
41	23	22	2.652103545036
41	24	23	4.6692124953878
41	25	24	4.7702276717136
41	26	25	7.4901829958877
41	27	26	8.4568453029794
41	28	27	9.306426849065
41	29	28	10.988249094601
41	30	29	0.973
41	31	30	0.973
41	32	31	0.973
41	33	32	0.973
41	34	33	0.973
41	35	34	0.973
41	36	35	1.1123493311645
41	37	36	1.4919790828058
41	38	37	2.0811517310492
41	39	38	4.2477163380203
41	40	39	4.8679571553396
40	11	10	1.8149746041279
40	12	11	1.5757762638619
40	13	12	2.3517901421525
40	14	13	1.6070200065151
40	15	14	1.7309295734623
40	16	15	1.686133800284
40	17	16	-1.4764513773704
40	18	17	-3.795097556687
40	19	18	-3.1772448004689
40	20	19	-3.0117905925762
40	21	20	0.61022510961629
40	22	21	-0.69159797583707
40	23	22	1.6951142302249
40	24	23	2.3636888966663
40	25	24	1.7956614896888
40	26	25	2.4224920479814
40	27	26	2.2429834315786
40	28	27	2.1008259876864
40	29	28	2.1833249288378
40	30	29	-0.83669257864005
40	31	30	-4.3877778503501
40	32	31	-4.5
40	33	32	-4.5
40	34	33	-0.69238361991967
40	35	34	-1.5538992234282
40	36	35	0.03482866991137
40	37	36	1.1403804945085
40	38	37	1.3739812384905
40	39	38	2.4114399921848
40	40	39	2.0145442389883
35	11	10	4.2636237920029
35	12	11	5.8394000558648
35	13	12	8.1911901980173
35	14	13	9.7982102045324
35	15	14	11.529139777995
35	16	15	13.215273578279
35	17	16	11.738822200908
35	18	17	7.9437246442214
35	19	18	4.7664798437525
35	20	19	1.7546892511762
35	21	20	2.3649143607925
35	22	21	1.6733163849554
35	23	22	3.3684306151803
35	24	23	5.7321195118466
35	25	24	7.5277810015354
35	26	25	9.9502730495167
35	27	26	12.193256481095
35	28	27	14.294082468782
35	29	28	16.47740739762
35	30	29	15.64071481898
35	31	30	11.252936968629
35	32	31	6.7529369686295
35	33	32	2.2529369686295
35	34	33	1.5605533487098
35	35	34	0.0066541252815629
35	36	35	0.041482795192933
35	37	36	1.1818632897014
35	38	37	2.5558445281918
35	39	38	4.9672845203766
35	40	39	6.9818287593649
30	11	10	205.89497366919
30	12	11	200.06409949854
30	13	12	191.88486894479
30	14	13	182.31153021876
30	15	14	171.25372128174
30	16	15	158.87139261473
30	17	16	147.94636471849
30	18	17	140.54930593884
30	19	18	136.09912074878
30	20	19	134.42224566622
30	21	20	133.35822120437
30	22	21	134.42893791501
30	23	22	137.57257762763
30	24	23	142.91548830534
30	25	24	149.92135796718
30	26	25	159.18176499421
30	27	26	170.62094308018
30	28	27	184.34649708439
30	29	28	200.68588943986
30	30	29	216.30331332216
30	31	30	227.53121034153
30	32	31	234.25435494118
30	33	32	236.35216099192
30	34	33	237.24073301127
30	35	34	237.24312713657
30	36	35	237.25805246563
30	37	36	236.61074846449
30	38	37	234.20820654908
30	39	38	229.25918410415
30	40	39	222.30302383287
29	11	10	172.76537387928
29	12	11	173.07452761048
29	13	12	173.50819151232
29	14	13	175.29728043711
29	15	14	178.5489489284
29	16	15	183.15428416967
29	17	16	187.44705214028
29	18	17	190.34639770109
29	19	18	192.06082784799
29	20	19	192.15222770912
29	21	20	190.50035592719
29	22	21	189.26183123002
29	23	22	188.05893965788
29	24	23	185.98031038632
29	25	24	183.22790310727
29	26	25	179.58975210839
29	27	26	175.38102347002
29	28	27	171.40252201995
29	29	28	169.84335246754
29	30	29	169.01456712055
29	31	30	169.55386358397
29	32	31	170.1745379377
29	33	32	170.74050132977
29	34	33	171.95815124798
29	35	34	171.96436101047
29	36	35	172.00307358274
29	37	36	172.92825477126
29	38	37	173.38714082556
29	39	38	172.9305889395
29	40	39	172.28887673735
vector 180 pavillonsNetwork.node[35].veinsmobility acceleration ETV
vector 181 pavillonsNetwork.node[35].veinsmobility co2emission ETV
vector 182 pavillonsNetwork.node[36].veinsmobility speed ETV
vector 183 pavillonsNetwork.node[37].veinsmobility posx ETV
vector 184 pavillonsNetwork.node[37].veinsmobility posy ETV
vector 185 pavillonsNetwork.node[36].veinsmobility acceleration ETV
vector 186 pavillonsNetwork.node[36].veinsmobility co2emission ETV
136	33	32	3.2345998270676
136	34	33	3.7629297594373
136	35	34	6.3741479537311
136	36	35	6.8945956238926
136	37	36	6.6340834709599
136	38	37	0.973
136	39	38	0.973
136	40	39	0.973
136	41	40	0.973
136	42	41	0.973
135	33	32	1.9327908379259
135	34	33	1.6835226509487
135	35	34	2.4274381422205
135	36	35	2.085523607186
135	37	36	1.6588336160174
135	38	37	-0.79932924962318
135	39	38	-3.3099756704623
135	40	39	-2.1411392071243
135	41	40	-1.1404225640714
135	42	41	-1.0029337412341
134	32	31	2.1877563935006
134	33	32	4.1205472314265
134	34	33	5.8040698823752
134	35	34	8.2315080245957
134	36	35	10.317031631782
134	37	36	11.975865247799
134	38	37	11.176535998176
134	39	38	7.8665603277136
134	40	39	5.7254211205893
134	41	40	4.5849985565179
134	42	41	3.5820648152839
129	31	30	212.59744631541
129	32	31	210.41288418154
129	33	32	206.2983532039
129	34	33	200.5027576225
129	35	34	192.2832681087
129	36	35	182.19621805154
129	37	36	170.71725584232
129	38	37	160.24150659192
129	39	38	152.92029586423
129	40	39	147.59178978503
129	41	40	143.32464643139
129	42	41	139.98502602041
128	31	30	172.41000787992
128	32	31	172.52583365749
128	33	32	172.74398664221
128	34	33	173.05126989787
128	35	34	173.48706833518
128	36	35	175.32988429312
128	37	36	178.73105883712
128	38	37	182.61592569103
128	39	38	185.49264685058
128	40	39	187.5863751637
128	41	40	189.2630625359
128	42	41	190.56482863726
168	38	37	2.3962847798126
168	39	38	3.6798336165555
168	40	39	4.8294188199638
168	41	40	6.3630074904359
168	42	41	6.7778617394966
167	38	37	1.6077916391194
167	39	38	1.9626325945137
167	40	39	2.0114652232034
167	41	40	2.1667176323012
167	42	41	1.8950140606379
162	37	36	1.3388890681788
162	38	37	2.9466807072982
162	39	38	4.9093133018119
162	40	39	6.9207785250153
162	41	40	9.0874961573165
162	42	41	10.982510217954
150	36	35	181.30828581826
150	37	36	181.74313677863
150	38	37	182.70017419565
150	39	38	184.2946450557
150	40	39	186.54240945953
150	41	40	190.59862745618
150	42	41	198.55338129838
149	36	35	328.07365159372
149	37	36	326.80740444237
149	38	37	324.0205969762
149	39	38	319.37764026584
149	40	39	312.83235111475
149	41	40	304.83496783644
149	42	41	297.31081286588
vector 187 pavillonsNetwork.node[38].veinsmobility posx ETV
vector 188 pavillonsNetwork.node[38].veinsmobility posy ETV
vector 189 pavillonsNetwork.node[37].veinsmobility speed ETV
vector 190 pavillonsNetwork.node[37].veinsmobility acceleration ETV
vector 191 pavillonsNetwork.node[37].veinsmobility co2emission ETV
vector 192 pavillonsNetwork.node[38].veinsmobility speed ETV
vector 193 pavillonsNetwork.node[39].veinsmobility posx ETV
vector 194 pavillonsNetwork.node[39].veinsmobility posy ETV
vector 195 pavillonsNetwork.node[40].veinsmobility posx ETV
vector 196 pavillonsNetwork.node[40].veinsmobility posy ETV
vector 197 pavillonsNetwork.node[38].veinsmobility acceleration ETV
vector 198 pavillonsNetwork.node[38].veinsmobility co2emission ETV
vector 199 pavillonsNetwork.node[41].veinsmobility posx ETV
vector 200 pavillonsNetwork.node[41].veinsmobility posy ETV
vector 201 pavillonsNetwork.node[39].veinsmobility speed ETV
vector 202 pavillonsNetwork.node[40].veinsmobility speed ETV
vector 203 pavillonsNetwork.node[39].veinsmobility acceleration ETV
vector 204 pavillonsNetwork.node[39].veinsmobility co2emission ETV
vector 205 pavillonsNetwork.node[40].veinsmobility acceleration ETV
vector 206 pavillonsNetwork.node[40].veinsmobility co2emission ETV
vector 207 pavillonsNetwork.node[41].veinsmobility speed ETV
vector 208 pavillonsNetwork.node[41].veinsmobility acceleration ETV
vector 209 pavillonsNetwork.node[41].veinsmobility co2emission ETV
vector 210 pavillonsNetwork.node[42].veinsmobility posx ETV
vector 211 pavillonsNetwork.node[42].veinsmobility posy ETV
vector 212 pavillonsNetwork.node[43].veinsmobility posx ETV
vector 213 pavillonsNetwork.node[43].veinsmobility posy ETV
vector 214 pavillonsNetwork.node[44].veinsmobility posx ETV
vector 215 pavillonsNetwork.node[44].veinsmobility posy ETV
vector 216 pavillonsNetwork.node[42].veinsmobility speed ETV
vector 217 pavillonsNetwork.node[43].veinsmobility speed ETV
vector 218 pavillonsNetwork.node[42].veinsmobility acceleration ETV
vector 219 pavillonsNetwork.node[42].veinsmobility co2emission ETV
vector 220 pavillonsNetwork.node[43].veinsmobility acceleration ETV
vector 221 pavillonsNetwork.node[43].veinsmobility co2emission ETV
vector 222 pavillonsNetwork.node[44].veinsmobility speed ETV
vector 223 pavillonsNetwork.node[45].veinsmobility posx ETV
vector 224 pavillonsNetwork.node[45].veinsmobility posy ETV
vector 225 pavillonsNetwork.node[46].veinsmobility posx ETV
vector 226 pavillonsNetwork.node[46].veinsmobility posy ETV
vector 227 pavillonsNetwork.node[44].veinsmobility acceleration ETV
vector 228 pavillonsNetwork.node[44].veinsmobility co2emission ETV
vector 229 pavillonsNetwork.node[47].veinsmobility posx ETV
vector 230 pavillonsNetwork.node[47].veinsmobility posy ETV
vector 231 pavillonsNetwork.node[45].veinsmobility speed ETV
vector 232 pavillonsNetwork.node[46].veinsmobility speed ETV
vector 233 pavillonsNetwork.node[45].veinsmobility acceleration ETV
vector 234 pavillonsNetwork.node[45].veinsmobility co2emission ETV
vector 235 pavillonsNetwork.node[46].veinsmobility acceleration ETV
vector 236 pavillonsNetwork.node[46].veinsmobility co2emission ETV
vector 237 pavillonsNetwork.node[47].veinsmobility speed ETV
vector 238 pavillonsNetwork.node[47].veinsmobility acceleration ETV
vector 239 pavillonsNetwork.node[47].veinsmobility co2emission ETV
vector 240 pavillonsNetwork.node[48].veinsmobility posx ETV
vector 241 pavillonsNetwork.node[48].veinsmobility posy ETV
vector 242 pavillonsNetwork.node[49].veinsmobility posx ETV
vector 243 pavillonsNetwork.node[49].veinsmobility posy ETV
vector 244 pavillonsNetwork.node[50].veinsmobility posx ETV
vector 245 pavillonsNetwork.node[50].veinsmobility posy ETV
vector 246 pavillonsNetwork.node[48].veinsmobility speed ETV
vector 247 pavillonsNetwork.node[49].veinsmobility speed ETV
vector 248 pavillonsNetwork.node[51].veinsmobility posx ETV
vector 249 pavillonsNetwork.node[51].veinsmobility posy ETV
vector 250 pavillonsNetwork.node[48].veinsmobility acceleration ETV
vector 251 pavillonsNetwork.node[48].veinsmobility co2emission ETV
vector 252 pavillonsNetwork.node[49].veinsmobility acceleration ETV
vector 253 pavillonsNetwork.node[49].veinsmobility co2emission ETV
vector 254 pavillonsNetwork.node[50].veinsmobility speed ETV
vector 255 pavillonsNetwork.node[52].veinsmobility posx ETV
vector 256 pavillonsNetwork.node[52].veinsmobility posy ETV
vector 257 pavillonsNetwork.node[50].veinsmobility acceleration ETV
vector 258 pavillonsNetwork.node[50].veinsmobility co2emission ETV
vector 259 pavillonsNetwork.node[51].veinsmobility speed ETV
vector 260 pavillonsNetwork.node[51].veinsmobility acceleration ETV
vector 261 pavillonsNetwork.node[51].veinsmobility co2emission ETV
vector 262 pavillonsNetwork.node[52].veinsmobility speed ETV
vector 263 pavillonsNetwork.node[53].veinsmobility posx ETV
vector 264 pavillonsNetwork.node[53].veinsmobility posy ETV
vector 265 pavillonsNetwork.node[54].veinsmobility posx ETV
vector 266 pavillonsNetwork.node[54].veinsmobility posy ETV
vector 267 pavillonsNetwork.node[52].veinsmobility acceleration ETV
vector 268 pavillonsNetwork.node[52].veinsmobility co2emission ETV
vector 269 pavillonsNetwork.node[55].veinsmobility posx ETV
vector 270 pavillonsNetwork.node[55].veinsmobility posy ETV
vector 271 pavillonsNetwork.node[53].veinsmobility speed ETV
vector 272 pavillonsNetwork.node[54].veinsmobility speed ETV
vector 273 pavillonsNetwork.node[53].veinsmobility acceleration ETV
vector 274 pavillonsNetwork.node[53].veinsmobility co2emission ETV
vector 275 pavillonsNetwork.node[54].veinsmobility acceleration ETV
vector 276 pavillonsNetwork.node[54].veinsmobility co2emission ETV
vector 277 pavillonsNetwork.node[55].veinsmobility speed ETV
vector 278 pavillonsNetwork.node[56].veinsmobility posx ETV
vector 279 pavillonsNetwork.node[56].veinsmobility posy ETV
vector 280 pavillonsNetwork.node[55].veinsmobility acceleration ETV
vector 281 pavillonsNetwork.node[55].veinsmobility co2emission ETV
vector 282 pavillonsNetwork.node[57].veinsmobility posx ETV
vector 283 pavillonsNetwork.node[57].veinsmobility posy ETV
vector 284 pavillonsNetwork.node[56].veinsmobility speed ETV
vector 285 pavillonsNetwork.node[58].veinsmobility posx ETV
vector 286 pavillonsNetwork.node[58].veinsmobility posy ETV
vector 287 pavillonsNetwork.node[56].veinsmobility acceleration ETV
vector 288 pavillonsNetwork.node[56].veinsmobility co2emission ETV
vector 289 pavillonsNetwork.node[57].veinsmobility speed ETV
vector 290 pavillonsNetwork.node[57].veinsmobility acceleration ETV
vector 291 pavillonsNetwork.node[57].veinsmobility co2emission ETV
vector 292 pavillonsNetwork.node[58].veinsmobility speed ETV
vector 293 pavillonsNetwork.node[59].veinsmobility posx ETV
vector 294 pavillonsNetwork.node[59].veinsmobility posy ETV
vector 295 pavillonsNetwork.node[58].veinsmobility acceleration ETV
vector 296 pavillonsNetwork.node[58].veinsmobility co2emission ETV
vector 297 pavillonsNetwork.node[60].veinsmobility posx ETV
vector 298 pavillonsNetwork.node[60].veinsmobility posy ETV
vector 299 pavillonsNetwork.node[59].veinsmobility speed ETV
vector 300 pavillonsNetwork.node[61].veinsmobility posx ETV
vector 301 pavillonsNetwork.node[61].veinsmobility posy ETV
vector 302 pavillonsNetwork.node[59].veinsmobility acceleration ETV
vector 303 pavillonsNetwork.node[59].veinsmobility co2emission ETV
vector 304 pavillonsNetwork.node[60].veinsmobility speed ETV
vector 305 pavillonsNetwork.node[62].veinsmobility posx ETV
vector 306 pavillonsNetwork.node[62].veinsmobility posy ETV
vector 307 pavillonsNetwork.node[60].veinsmobility acceleration ETV
vector 308 pavillonsNetwork.node[60].veinsmobility co2emission ETV
vector 309 pavillonsNetwork.node[61].veinsmobility speed ETV
vector 310 pavillonsNetwork.node[63].veinsmobility posx ETV
vector 311 pavillonsNetwork.node[63].veinsmobility posy ETV
vector 312 pavillonsNetwork.node[61].veinsmobility acceleration ETV
vector 313 pavillonsNetwork.node[61].veinsmobility co2emission ETV
vector 314 pavillonsNetwork.node[62].veinsmobility speed ETV
vector 315 pavillonsNetwork.node[64].veinsmobility posx ETV
vector 316 pavillonsNetwork.node[64].veinsmobility posy ETV
vector 317 pavillonsNetwork.node[62].veinsmobility acceleration ETV
vector 318 pavillonsNetwork.node[62].veinsmobility co2emission ETV
vector 319 pavillonsNetwork.node[63].veinsmobility speed ETV
vector 320 pavillonsNetwork.node[65].veinsmobility posx ETV
vector 321 pavillonsNetwork.node[65].veinsmobility posy ETV
vector 322 pavillonsNetwork.node[63].veinsmobility acceleration ETV
vector 323 pavillonsNetwork.node[63].veinsmobility co2emission ETV
vector 324 pavillonsNetwork.node[64].veinsmobility speed ETV
vector 325 pavillonsNetwork.node[66].veinsmobility posx ETV
vector 326 pavillonsNetwork.node[66].veinsmobility posy ETV
vector 327 pavillonsNetwork.node[64].veinsmobility acceleration ETV
vector 328 pavillonsNetwork.node[64].veinsmobility co2emission ETV
vector 329 pavillonsNetwork.node[65].veinsmobility speed ETV
vector 330 pavillonsNetwork.node[65].veinsmobility acceleration ETV
vector 331 pavillonsNetwork.node[65].veinsmobility co2emission ETV
vector 332 pavillonsNetwork.node[66].veinsmobility speed ETV
vector 333 pavillonsNetwork.node[67].veinsmobility posx ETV
vector 334 pavillonsNetwork.node[67].veinsmobility posy ETV
vector 335 pavillonsNetwork.node[66].veinsmobility acceleration ETV
vector 336 pavillonsNetwork.node[66].veinsmobility co2emission ETV
vector 337 pavillonsNetwork.node[68].veinsmobility posx ETV
vector 338 pavillonsNetwork.node[68].veinsmobility posy ETV
vector 339 pavillonsNetwork.node[67].veinsmobility speed ETV
vector 340 pavillonsNetwork.node[67].veinsmobility acceleration ETV
vector 341 pavillonsNetwork.node[67].veinsmobility co2emission ETV
vector 342 pavillonsNetwork.node[68].veinsmobility speed ETV
vector 343 pavillonsNetwork.node[68].veinsmobility acceleration ETV
vector 344 pavillonsNetwork.node[68].veinsmobility co2emission ETV
vector 345 pavillonsNetwork.node[69].veinsmobility posx ETV
vector 346 pavillonsNetwork.node[69].veinsmobility posy ETV
vector 347 pavillonsNetwork.node[69].veinsmobility speed ETV
vector 348 pavillonsNetwork.node[69].veinsmobility acceleration ETV
vector 349 pavillonsNetwork.node[69].veinsmobility co2emission ETV
vector 350 pavillonsNetwork.node[70].veinsmobility posx ETV
vector 351 pavillonsNetwork.node[70].veinsmobility posy ETV
vector 352 pavillonsNetwork.node[71].veinsmobility posx ETV
vector 353 pavillonsNetwork.node[71].veinsmobility posy ETV
vector 354 pavillonsNetwork.node[70].veinsmobility speed ETV
vector 355 pavillonsNetwork.node[72].veinsmobility posx ETV
vector 356 pavillonsNetwork.node[72].veinsmobility posy ETV
vector 357 pavillonsNetwork.node[70].veinsmobility acceleration ETV
vector 358 pavillonsNetwork.node[70].veinsmobility co2emission ETV
vector 359 pavillonsNetwork.node[71].veinsmobility speed ETV
vector 360 pavillonsNetwork.node[71].veinsmobility acceleration ETV
vector 361 pavillonsNetwork.node[71].veinsmobility co2emission ETV
vector 362 pavillonsNetwork.node[72].veinsmobility speed ETV
vector 363 pavillonsNetwork.node[73].veinsmobility posx ETV
vector 364 pavillonsNetwork.node[73].veinsmobility posy ETV
vector 365 pavillonsNetwork.node[72].veinsmobility acceleration ETV
vector 366 pavillonsNetwork.node[72].veinsmobility co2emission ETV
vector 367 pavillonsNetwork.node[74].veinsmobility posx ETV
vector 368 pavillonsNetwork.node[74].veinsmobility posy ETV
vector 369 pavillonsNetwork.node[73].veinsmobility speed ETV
vector 370 pavillonsNetwork.node[75].veinsmobility posx ETV
vector 371 pavillonsNetwork.node[75].veinsmobility posy ETV
vector 372 pavillonsNetwork.node[73].veinsmobility acceleration ETV
vector 373 pavillonsNetwork.node[73].veinsmobility co2emission ETV
vector 374 pavillonsNetwork.node[74].veinsmobility speed ETV
vector 375 pavillonsNetwork.node[76].veinsmobility posx ETV
vector 376 pavillonsNetwork.node[76].veinsmobility posy ETV
vector 377 pavillonsNetwork.node[74].veinsmobility acceleration ETV
vector 378 pavillonsNetwork.node[74].veinsmobility co2emission ETV
vector 379 pavillonsNetwork.node[75].veinsmobility speed ETV
vector 380 pavillonsNetwork.node[77].veinsmobility posx ETV
vector 381 pavillonsNetwork.node[77].veinsmobility posy ETV
vector 382 pavillonsNetwork.node[75].veinsmobility acceleration ETV
vector 383 pavillonsNetwork.node[75].veinsmobility co2emission ETV
vector 384 pavillonsNetwork.node[76].veinsmobility speed ETV
vector 385 pavillonsNetwork.node[76].veinsmobility acceleration ETV
vector 386 pavillonsNetwork.node[76].veinsmobility co2emission ETV
vector 387 pavillonsNetwork.node[77].veinsmobility speed ETV
vector 388 pavillonsNetwork.node[78].veinsmobility posx ETV
vector 389 pavillonsNetwork.node[78].veinsmobility posy ETV
vector 390 pavillonsNetwork.node[77].veinsmobility acceleration ETV
vector 391 pavillonsNetwork.node[77].veinsmobility co2emission ETV
vector 392 pavillonsNetwork.node[78].veinsmobility speed ETV
vector 393 pavillonsNetwork.node[78].veinsmobility acceleration ETV
vector 394 pavillonsNetwork.node[78].veinsmobility co2emission ETV
vector 395 pavillonsNetwork.node[79].veinsmobility posx ETV
vector 396 pavillonsNetwork.node[79].veinsmobility posy ETV
vector 397 pavillonsNetwork.node[80].veinsmobility posx ETV
vector 398 pavillonsNetwork.node[80].veinsmobility posy ETV
vector 399 pavillonsNetwork.node[79].veinsmobility speed ETV
vector 400 pavillonsNetwork.node[80].veinsmobility speed ETV
vector 401 pavillonsNetwork.node[79].veinsmobility acceleration ETV
vector 402 pavillonsNetwork.node[79].veinsmobility co2emission ETV
vector 403 pavillonsNetwork.node[80].veinsmobility acceleration ETV
vector 404 pavillonsNetwork.node[80].veinsmobility co2emission ETV
vector 405 pavillonsNetwork.node[81].veinsmobility posx ETV
vector 406 pavillonsNetwork.node[81].veinsmobility posy ETV
5	11	10	272.16320652436
5	12	11	279.78168968578
5	13	12	283.05659408276
5	14	13	284.55403663211
5	15	14	282.36136910057
5	16	15	278.48209086902
5	17	16	272.29887819556
5	18	17	264.52038913671
5	19	18	255.82901580083
5	20	19	245.48239255013
5	21	20	235.47176415459
5	22	21	228.06357932192
5	23	22	224.55854856533
5	24	23	224.28105549663
5	25	24	224.11398502385
5	26	25	224.09847474924
5	27	26	222.59550888661
5	28	27	219.7945620661
5	29	28	214.95517635234
5	30	29	208.44120872671
5	31	30	200.3591721158
5	32	31	192.38754929009
5	33	32	185.84120754518
5	34	33	180.78215281501
5	35	34	179.91792590412
5	36	35	179.84037850042
5	37	36	179.83322186607
5	38	37	179.8287809893
5	39	38	179.82845348529
5	40	39	179.82832286606
5	41	40	179.82832286606
5	42	41	179.82832286606
5	43	42	179.82832286606
5	44	43	179.82832286606
5	45	44	179.82832286606
5	46	45	179.82832286606
5	47	46	179.82832286606
5	48	47	179.82832286606
5	49	48	179.82832286606
5	50	49	179.82832286606
5	51	50	179.82832286606
5	52	51	179.82832286606
5	53	52	179.82832286606
5	54	53	179.82832286606
5	55	54	179.82832286606
5	56	55	179.82832286606
5	57	56	179.82832286606
5	58	57	179.82832286606
5	59	58	179.82832286606
5	60	59	179.82832286606
5	61	60	179.82832286606
5	62	61	179.82832286606
5	63	62	179.82832286606
5	64	63	179.82832286606
5	65	64	179.82832286606
5	66	65	179.82832286606
5	67	66	179.82832286606
5	68	67	179.82832286606
5	69	68	179.82832286606
5	70	69	179.82832286606
5	71	70	179.82832286606
5	72	71	179.82832286606
5	73	72	179.82832286606
5	74	73	179.82832286606
5	75	74	179.82832286606
5	76	75	179.82832286606
5	77	76	179.82832286606
5	78	77	179.82832286606
5	79	78	179.82832286606
5	80	79	179.82832286606
5	81	80	179.82832286606
5	82	81	179.82832286606
5	83	82	179.82832286606
5	84	83	179.82832286606
5	85	84	179.82832286606
5	86	85	179.82832286606
5	88	86	179.82832286606
5	89	87	179.82832286606
5	90	88	179.82832286606
5	91	89	179.82832286606
5	92	90	179.82832286606
5	93	91	179.82832286606
5	94	92	179.82832286606
5	95	93	179.82832286606
5	96	94	179.82832286606
5	98	95	179.82832286606
5	99	96	179.82832286606
5	100	97	179.82832286606
5	101	98	179.82832286606
5	102	99	179.82832286606
5	103	100	179.82832286606
5	104	101	179.82832286606
5	105	102	179.82832286606
6	11	10	217.87238425889
6	12	11	216.79074776066
6	13	12	216.32579219813
6	14	13	213.98342498322
6	15	14	213.19067979992
6	16	15	213.74183408418
6	17	16	214.62032331648
6	18	17	215.8083220326
6	19	18	219.92825874376
6	20	19	225.52757979671
6	21	20	229.45895461392
6	22	21	230.49014251595
6	23	22	230.97802792838
6	24	23	231.01665378637
6	25	24	231.03990928744
6	26	25	231.04206825187
6	27	26	231.25127472413
6	28	27	231.6411546395
6	29	28	232.3306918716
6	30	29	233.42385763847
6	31	30	235.16443878642
6	32	31	237.04074784936
6	33	32	238.58158346259
6	34	33	239.77235107009
6	35	34	239.97576721519
6	36	35	239.99401982191
6	37	36	239.99570430425
6	38	37	239.99674956912
6	39	38	239.9968266549
6	40	39	239.99685739921
6	41	40	239.99685739921
6	42	41	239.99685739921
6	43	42	239.99685739921
6	44	43	239.99685739921
6	45	44	239.99685739921
6	46	45	239.99685739921
6	47	46	239.99685739921
6	48	47	239.99685739921
6	49	48	239.99685739921
6	50	49	239.99685739921
6	51	50	239.99685739921
6	52	51	239.99685739921
6	53	52	239.99685739921
6	54	53	239.99685739921
6	55	54	239.99685739921
6	56	55	239.99685739921
6	57	56	239.99685739921
6	58	57	239.99685739921
6	59	58	239.99685739921
6	60	59	239.99685739921
6	61	60	239.99685739921
6	62	61	239.99685739921
6	63	62	239.99685739921
6	64	63	239.99685739921
6	65	64	239.99685739921
6	66	65	239.99685739921
6	67	66	239.99685739921
6	68	67	239.99685739921
6	69	68	239.99685739921
6	70	69	239.99685739921
6	71	70	239.99685739921
6	72	71	239.99685739921
6	73	72	239.99685739921
6	74	73	239.99685739921
6	75	74	239.99685739921
6	76	75	239.99685739921
6	77	76	239.99685739921
6	78	77	239.99685739921
6	79	78	239.99685739921
6	80	79	239.99685739921
6	81	80	239.99685739921
6	82	81	239.99685739921
6	83	82	239.99685739921
6	84	83	239.99685739921
6	85	84	239.99685739921
6	86	85	239.99685739921
6	88	86	239.99685739921
6	89	87	239.99685739921
6	90	88	239.99685739921
6	91	89	239.99685739921
6	92	90	239.99685739921
6	93	91	239.99685739921
6	94	92	239.99685739921
6	95	93	239.99685739921
6	96	94	239.99685739921
6	98	95	239.99685739921
6	99	96	239.99685739921
6	100	97	239.99685739921
6	101	98	239.99685739921
6	102	99	239.99685739921
6	103	100	239.99685739921
6	104	101	239.99685739921
6	105	102	239.99685739921
10	11	10	297.02825973733
10	12	11	292.20463251665
10	13	12	279.34304860994
10	14	13	266.53320317388
10	15	14	253.19112390634
10	16	15	239.13780960566
10	17	16	228.09079193292
10	18	17	219.13606455228
10	19	18	215.60351408577
10	20	19	213.17038036858
10	21	20	211.54613311024
10	22	21	206.45010372003
10	23	22	198.76810455974
10	24	23	189.5299968178
10	25	24	183.14643521346
10	26	25	177.30634669236
10	27	26	173.74105293378
10	28	27	173.09196399647
10	29	28	172.39116954025
10	30	29	172.31372047472
10	31	30	172.83024339761
10	32	31	173.40525127653
10	33	32	175.59460182858
10	34	33	179.94735254306
10	35	34	184.64227111701
10	36	35	187.72637593966
10	37	36	189.3190480278
10	38	37	190.1560561221
10	39	38	191.40954695173
10	40	39	192.25194265384
10	41	40	190.72235764058
10	42	41	188.8217707812
10	43	42	186.88383483847
10	44	43	184.26397792003
10	45	44	181.01680782428
10	46	45	177.28025799117
10	47	46	173.71265732256
10	48	47	170.47699289035
10	49	48	169.86039902611
10	50	49	169.44824259159
10	51	50	169.20060146931
10	52	51	169.18500488333
10	53	52	169.17936361447
10	54	53	169.17570127645
10	55	54	169.17458165283
10	56	55	169.17441488868
10	57	56	169.17437825896
10	58	57	169.17436333957
10	59	58	169.17435774003
10	60	59	169.17435774003
10	61	60	169.17435774003
10	62	61	169.17435774003
10	63	62	169.17435774003
10	64	63	169.17435774003
10	65	64	169.17435774003
10	66	65	169.17435774003
10	67	66	169.17435774003
10	68	67	169.17435774003
10	69	68	169.17435774003
10	70	69	169.17435774003
10	71	70	169.17435774003
10	72	71	169.17435774003
10	73	72	169.17435774003
10	74	73	169.17435774003
10	75	74	169.17435774003
10	76	75	169.17435774003
10	77	76	169.17435774003
10	78	77	169.17435774003
10	79	78	169.17435774003
10	80	79	169.17435774003
10	81	80	169.17435774003
10	82	81	169.17435774003
10	83	82	169.17435774003
10	84	83	169.17435774003
10	85	84	169.17435774003
10	86	85	169.17435774003
10	88	86	169.17435774003
10	89	87	169.17435774003
10	90	88	169.17435774003
10	91	89	169.17435774003
10	92	90	169.17435774003
10	93	91	169.17435774003
10	94	92	169.17435774003
10	95	93	169.17435774003
10	96	94	169.17435774003
10	98	95	169.17435774003
10	99	96	169.17435774003
10	100	97	169.17435774003
10	101	98	169.17435774003
10	102	99	169.17435774003
10	103	100	169.17435774003
10	104	101	169.17435774003
10	105	102	169.17435774003
11	11	10	263.41044561062
11	12	11	274.83133010773
11	13	12	278.18219411376
11	14	13	279.16782472308
11	15	14	280.19440711111
11	16	15	281.30882624819
11	17	16	273.10681102771
11	18	17	264.42484711074
11	19	18	251.74389671813
11	20	19	243.00957055389
11	21	20	238.74124947713
11	22	21	234.71185354092
11	23	22	235.53893398526
11	24	23	237.71334008294
11	25	24	239.21586155867
11	26	25	240.23075246153
11	27	26	236.51998313292
11	28	27	231.00848972178
11	29	28	223.41187781631
11	30	29	214.41349990712
11	31	30	204.67148528554
11	32	31	193.82639997428
11	33	32	181.25997441511
11	34	33	167.13425730024
11	35	34	155.08448891524
11	36	35	147.23548998191
11	37	36	143.18216422295
11	38	37	141.04102168458
11	39	38	137.80283704137
11	40	39	134.84830043005
11	41	40	133.31155933972
11	42	41	135.58967706987
11	43	42	140.61569256063
11	44	43	147.28417372726
11	45	44	155.54939328026
11	46	45	165.06026084515
11	47	46	176.15351126176
11	48	47	188.74572772248
11	49	48	200.36466835174
11	50	49	208.13124116464
11	51	50	212.79772856263
11	52	51	213.0916267297
11	53	52	213.19792938989
11	54	53	213.26694157187
11	55	54	213.28803947952
11	56	55	213.29118194151
11	57	56	213.29187218272
11	58	57	213.29215331996
11	59	58	213.29225883629
11	60	59	213.29225883629
11	61	60	213.29225883629
11	62	61	213.29225883629
11	63	62	213.29225883629
11	64	63	213.29225883629
11	65	64	213.29225883629
11	66	65	213.29225883629
11	67	66	213.29225883629
11	68	67	213.29225883629
11	69	68	213.29225883629
11	70	69	213.29225883629
11	71	70	213.29225883629
11	72	71	213.29225883629
11	73	72	213.29225883629
11	74	73	213.29225883629
11	75	74	213.29225883629
11	76	75	213.29225883629
11	77	76	213.29225883629
11	78	77	213.29225883629
11	79	78	213.29225883629
11	80	79	213.29225883629
11	81	80	213.29225883629
11	82	81	213.29225883629
11	83	82	213.29225883629
11	84	83	213.29225883629
11	85	84	213.29225883629
11	86	85	213.29225883629
11	88	86	213.29225883629
11	89	87	213.29225883629
11	90	88	213.29225883629
11	91	89	213.29225883629
11	92	90	213.29225883629
11	93	91	213.29225883629
11	94	92	213.29225883629
11	95	93	213.29225883629
11	96	94	213.29225883629
11	98	95	213.29225883629
11	99	96	213.29225883629
11	100	97	213.29225883629
11	101	98	213.29225883629
11	102	99	213.29225883629
11	103	100	213.29225883629
11	104	101	213.29225883629
11	105	102	213.29225883629
14	11	10	11.732489665843
14	12	11	7.6957219866697
14	13	12	3.3081065138696
14	14	13	3.3740519772038
14	15	14	2.479891270328
14	16	15	3.9187386187246
14	17	16	6.2461089009406
14	18	17	7.8817329589731
14	19	18	9.61964664508
14	20	19	11.766561161516
14	21	20	10.914921998401
14	22	21	7.4805691342965
14	23	22	3.539277904741
14	24	23	0.28020441330915
14	25	24	0.16870289418371
14	26	25	0.015661823258431
14	27	26	1.5176511245102
14	28	27	2.8283144664506
14	29	28	4.8884717274944
14	30	29	6.6046769000145
14	31	30	8.2674206446411
14	32	31	8.1904657565753
14	33	32	6.7260567973077
14	34	33	5.1979396710079
14	35	34	0.88795231213704
14	36	35	0.079676292814172
14	37	36	0.0073531036114756
14	38	37	0.0045627910258956
14	39	38	0.0003364949004863
14	40	39	0.00013420508017428
14	41	40	0
14	42	41	0
14	43	42	0
14	44	43	0
14	45	44	0
14	46	45	0
14	47	46	0
14	48	47	0
14	49	48	0
14	50	49	0
14	51	50	0
14	52	51	0
14	53	52	0
14	54	53	0
14	55	54	0
14	56	55	0
14	57	56	0
14	58	57	0
14	59	58	0
14	60	59	0
14	61	60	0
14	62	61	0
14	63	62	0
14	64	63	0
14	65	64	0
14	66	65	0
14	67	66	0
14	68	67	0
14	69	68	0
14	70	69	0
14	71	70	0
14	72	71	0
14	73	72	0
14	74	73	0
14	75	74	0
14	76	75	0
14	77	76	0
14	78	77	0
14	79	78	0
14	80	79	0
14	81	80	0
14	82	81	0
14	83	82	0
14	84	83	0
14	85	84	0
14	86	85	0
14	88	86	0
14	89	87	0
14	90	88	0
14	91	89	0
14	92	90	0
14	93	91	0
14	94	92	0
14	95	93	0
14	96	94	0
14	98	95	0
14	99	96	0
14	100	97	0
14	101	98	0
14	102	99	0
14	103	100	0
14	104	101	0
14	105	102	0
15	11	10	221.99339153013
15	12	11	230.39359939021
15	13	12	240.54080853922
15	14	13	251.65051408725
15	15	14	262.83468033445
15	16	15	274.94709298138
15	17	16	286.66244816556
15	18	17	296.48970047625
15	19	18	300.11361385087
15	20	19	299.08368495638
15	21	20	297.52388982086
15	22	21	295.04614472221
15	23	22	293.21523014891
15	24	23	291.89984899035
15	25	24	287.8562325176
15	26	25	284.38228662996
15	27	26	280.20480597479
15	28	27	274.24691707691
15	29	28	265.99917382337
15	30	29	258.6029091414
15	31	30	254.43892613739
15	32	31	251.39063515725
15	33	32	247.88591752434
15	34	33	243.77954391223
15	35	34	238.67117258668
15	36	35	233.93681235899
15	37	36	232.35149596825
15	38	37	231.92302560602
15	39	38	231.70282690442
15	40	39	231.61466089992
15	41	40	231.54926433941
15	42	41	231.53414477986
15	43	42	231.52730107396
15	44	43	231.52708279875
15	45	44	231.52708279875
15	46	45	231.5269269015
15	47	46	231.5269269015
15	48	47	231.5269269015
15	49	48	231.5269269015
15	50	49	231.5269269015
15	51	50	231.5269269015
15	52	51	231.5269269015
15	53	52	231.5269269015
15	54	53	231.5269269015
15	55	54	231.5269269015
15	56	55	231.5269269015
15	57	56	231.5269269015
15	58	57	231.5269269015
15	59	58	231.5269269015
15	60	59	231.5269269015
15	61	60	231.5269269015
15	62	61	231.5269269015
15	63	62	231.5269269015
15	64	63	231.5269269015
15	65	64	231.5269269015
15	66	65	231.5269269015
15	67	66	231.5269269015
15	68	67	231.5269269015
15	69	68	231.5269269015
15	70	69	231.5269269015
15	71	70	231.5269269015
15	72	71	231.5269269015
15	73	72	231.5269269015
15	74	73	231.5269269015
15	75	74	231.5269269015
15	76	75	231.5269269015
15	77	76	231.5269269015
15	78	77	231.5269269015
15	79	78	231.5269269015
15	80	79	231.5269269015
15	81	80	231.5269269015
15	82	81	231.5269269015
15	83	82	231.5269269015
15	84	83	231.5269269015
15	85	84	231.5269269015
15	86	85	231.5269269015
15	88	86	231.5269269015
15	89	87	231.5269269015
15	90	88	231.5269269015
15	91	89	231.5269269015
15	92	90	231.5269269015
15	93	91	231.5269269015
15	94	92	231.5269269015
15	95	93	231.5269269015
15	96	94	231.5269269015
15	98	95	231.5269269015
15	99	96	231.5269269015
15	100	97	231.5269269015
15	101	98	231.5269269015
15	102	99	231.5269269015
15	103	100	231.5269269015
15	104	101	231.5269269015
15	105	102	231.5269269015
16	11	10	272.52730861526
16	12	11	278.85245322956
16	13	12	284.40694289639
16	14	13	283.52286849225
16	15	14	282.66210363128
16	16	15	281.7298983191
16	17	16	280.64128118393
16	18	17	275.6996323065
16	19	18	264.66303289732
16	20	19	253.11883363326
16	21	20	241.29377999023
16	22	21	229.8264008887
16	23	22	221.35265129841
16	24	23	217.21975082441
16	25	24	213.54049300704
16	26	25	213.09
16	27	26	213.49707674675
16	28	27	214.34355276503
16	29	28	215.51536328193
16	30	29	218.61336125116
16	31	30	220.66264085495
16	32	31	222.31838739468
16	33	32	224.22205214691
16	34	33	226.45251962636
16	35	34	229.01361053257
16	36	35	229.67261339236
16	37	36	229.89328270879
16	38	37	229.95292396558
16	39	38	229.98357469072
16	40	39	229.99584702454
16	41	40	230.00494994834
16	42	41	230.00705452689
16	43	42	230.00800714172
16	44	43	230.0080375247
16	45	44	230.0080375247
16	46	45	230.00805922493
16	47	46	230.00805922493
16	48	47	230.00805922493
16	49	48	230.00805922493
16	50	49	230.00805922493
16	51	50	230.00805922493
16	52	51	230.00805922493
16	53	52	230.00805922493
16	54	53	230.00805922493
16	55	54	230.00805922493
16	56	55	230.00805922493
16	57	56	230.00805922493
16	58	57	230.00805922493
16	59	58	230.00805922493
16	60	59	230.00805922493
16	61	60	230.00805922493
16	62	61	230.00805922493
16	63	62	230.00805922493
16	64	63	230.00805922493
16	65	64	230.00805922493
16	66	65	230.00805922493
16	67	66	230.00805922493
16	68	67	230.00805922493
16	69	68	230.00805922493
16	70	69	230.00805922493
16	71	70	230.00805922493
16	72	71	230.00805922493
16	73	72	230.00805922493
16	74	73	230.00805922493
16	75	74	230.00805922493
16	76	75	230.00805922493
16	77	76	230.00805922493
16	78	77	230.00805922493
16	79	78	230.00805922493
16	80	79	230.00805922493
16	81	80	230.00805922493
16	82	81	230.00805922493
16	83	82	230.00805922493
16	84	83	230.00805922493
16	85	84	230.00805922493
16	86	85	230.00805922493
16	88	86	230.00805922493
16	89	87	230.00805922493
16	90	88	230.00805922493
16	91	89	230.00805922493
16	92	90	230.00805922493
16	93	91	230.00805922493
16	94	92	230.00805922493
16	95	93	230.00805922493
16	96	94	230.00805922493
16	98	95	230.00805922493
16	99	96	230.00805922493
16	100	97	230.00805922493
16	101	98	230.00805922493
16	102	99	230.00805922493
16	103	100	230.00805922493
16	104	101	230.00805922493
16	105	102	230.00805922493
17	11	10	-0.25813085805749
17	12	11	-4.0367676791735
17	13	12	-4.3876154728001
17	14	13	0.065945463334189
17	15	14	-0.89416070687585
17	16	15	1.4388473483967
17	17	16	2.327370282216
17	18	17	1.6356240580324
17	19	18	1.7379136861069
17	20	19	2.1469145164359
17	21	20	-0.85163916311476
17	22	21	-3.4343528641046
17	23	22	-3.9412912295556
17	24	23	-3.2590734914318
17	25	24	-0.11150151912543
17	26	25	-0.15304107092528
17	27	26	1.5019893012518
17	28	27	1.3106633419404
17	29	28	2.0601572610438
17	30	29	1.7162051725201
17	31	30	1.6627437446266
17	32	31	-0.076954888065879
17	33	32	-1.4644089592675
17	34	33	-1.5281171262999
17	35	34	-4.3099873588708
17	36	35	-0.80827601932287
17	37	36	-0.072323189202696
17	38	37	-0.00279031258558
17	39	38	-0.0042262961254093
17	40	39	-0.00020228982031202
17	41	40	-0.00013420508017428
17	42	41	0
17	43	42	0
17	44	43	0
17	45	44	0
17	46	45	0
17	47	46	0
17	48	47	0
17	49	48	0
17	50	49	0
17	51	50	0
17	52	51	0
17	53	52	0
17	54	53	0
17	55	54	0
17	56	55	0
17	57	56	0
17	58	57	0
17	59	58	0
17	60	59	0
17	61	60	0
17	62	61	0
17	63	62	0
17	64	63	0
17	65	64	0
17	66	65	0
17	67	66	0
17	68	67	0
17	69	68	0
17	70	69	0
17	71	70	0
17	72	71	0
17	73	72	0
17	74	73	0
17	75	74	0
17	76	75	0
17	77	76	0
17	78	77	0
17	79	78	0
17	80	79	0
17	81	80	0
17	82	81	0
17	83	82	0
17	84	83	0
17	85	84	0
17	86	85	0
17	88	86	0
17	89	87	0
17	90	88	0
17	91	89	0
17	92	90	0
17	93	91	0
17	94	92	0
17	95	93	0
17	96	94	0
17	98	95	0
17	99	96	0
17	100	97	0
17	101	98	0
17	102	99	0
17	103	100	0
17	104	101	0
17	105	102	0
18	11	10	0.973
18	12	11	0.973
18	13	12	0.973
18	14	13	1.3299359544724
18	15	14	0.973
18	16	15	2.663469609425
18	17	16	4.9372426181883
18	18	17	4.642310013281
18	19	18	5.6853513457745
18	20	19	7.9162076975895
18	21	20	0.973
18	22	21	0.973
18	23	22	0.973
18	24	23	0.973
18	25	24	0.973
18	26	25	0.973
18	27	26	1.7328928817257
18	28	27	2.1419072453854
18	29	28	3.7837275760894
18	30	29	4.1869550107628
18	31	30	4.8739529222823
18	32	31	1.4039639389468
18	33	32	0.973
18	34	33	0.973
18	35	34	0.973
18	36	35	0.973
18	37	36	1.1102265499781
18	38	37	1.1102170407291
18	39	38	1.1100158897814
18	40	39	1.1100064675103
18	41	40	0.973
18	42	41	0.973
18	43	42	0.973
18	44	43	0.973
18	45	44	0.973
18	46	45	0.973
18	47	46	0.973
18	48	47	0.973
18	49	48	0.973
18	50	49	0.973
18	51	50	0.973
18	52	51	0.973
18	53	52	0.973
18	54	53	0.973
18	55	54	0.973
18	56	55	0.973
18	57	56	0.973
18	58	57	0.973
18	59	58	0.973
18	60	59	0.973
18	61	60	0.973
18	62	61	0.973
18	63	62	0.973
18	64	63	0.973
18	65	64	0.973
18	66	65	0.973
18	67	66	0.973
18	68	67	0.973
18	69	68	0.973
18	70	69	0.973
18	71	70	0.973
18	72	71	0.973
18	73	72	0.973
18	74	73	0.973
18	75	74	0.973
18	76	75	0.973
18	77	76	0.973
18	78	77	0.973
18	79	78	0.973
18	80	79	0.973
18	81	80	0.973
18	82	81	0.973
18	83	82	0.973
18	84	83	0.973
18	85	84	0.973
18	86	85	0.973
18	88	86	0.973
18	89	87	0.973
18	90	88	0.973
18	91	89	0.973
18	92	90	0.973
18	93	91	0.973
18	94	92	0.973
18	95	93	0.973
18	96	94	0.973
18	98	95	0.973
18	99	96	0.973
18	100	97	0.973
18	101	98	0.973
18	102	99	0.973
18	103	100	0.973
18	104	101	0.973
18	105	102	0.973
19	11	10	11.235779686179
19	12	11	13.186362990784
19	13	12	13.463607935493
19	14	13	12.848147903944
19	15	14	13.381973157383
19	16	15	14.097943049276
19	17	16	13.794036623675
19	18	17	12.90181461687
19	19	18	13.164242291805
19	20	19	9.0672057158148
19	21	20	4.5755207761723
19	22	21	6.7752053383106
19	23	22	7.8187637676836
19	24	23	9.4917191605901
19	25	24	6.5588078950111
19	26	25	5.9419433775672
19	27	26	5.6118772641139
19	28	27	5.5546368158038
19	29	28	7.6246436837211
19	30	29	9.0184155785586
19	31	30	9.7562593636175
19	32	31	10.860942959666
19	33	32	12.835423689123
19	34	33	14.786893192346
19	35	34	12.93366294426
19	36	35	8.4336629442595
19	37	36	4.355253904951
19	38	37	2.2980319589417
19	39	38	3.4679912953117
19	40	39	3.1434411316516
19	41	40	2.5699585559417
19	42	41	3.1482696541456
19	43	42	5.3857790234137
19	44	43	7.1652583131438
19	45	44	8.8809477948921
19	46	45	10.219391969718
19	47	46	11.657754673214
19	48	47	13.032601062056
19	49	48	11.636268455702
19	50	49	7.7781554373367
19	51	50	4.6734467315755
19	52	51	0.29433647006349
19	53	52	0.10646119392607
19	54	53	0.069115102816277
19	55	54	0.021129371867624
19	56	55	0.0031471484729326
19	57	56	0.00069127059934872
19	58	57	0.00028155651146529
19	59	58	0.00010567368811323
19	60	59	0
19	61	60	0
19	62	61	0
19	63	62	0
19	64	63	0
19	65	64	0
19	66	65	0
19	67	66	0
19	68	67	0
19	69	68	0
19	70	69	0
19	71	70	0
19	72	71	0
19	73	72	0
19	74	73	0
19	75	74	0
19	76	75	0
19	77	76	0
19	78	77	0
19	79	78	0
19	80	79	0
19	81	80	0
19	82	81	0
19	83	82	0
19	84	83	0
19	85	84	0
19	86	85	0
19	88	86	0
19	89	87	0
19	90	88	0
19	91	89	0
19	92	90	0
19	93	91	0
19	94	92	0
19	95	93	0
19	96	94	0
19	98	95	0
19	99	96	0
19	100	97	0
19	101	98	0
19	102	99	0
19	103	100	0
19	104	101	0
19	105	102	0
20	11	10	1.8949667817447
20	12	11	1.9505833046045
20	13	12	0.27724494470965
20	14	13	-0.61546003154945
20	15	14	0.53382525343914
20	16	15	0.71596989189275
20	17	16	-0.30390642560087
20	18	17	-0.89222200680524
20	19	18	0.26242767493538
20	20	19	-4.0970365759901
20	21	20	-4.4916849396424
20	22	21	2.1996845621383
20	23	22	1.043558429373
20	24	23	1.6729553929064
20	25	24	-2.932911265579
20	26	25	-0.61686451744384
20	27	26	-0.33006611345336
20	28	27	-0.05724044831004
20	29	28	2.0700068679173
20	30	29	1.3937718948376
20	31	30	0.73784378505884
20	32	31	1.1046835960486
20	33	32	1.974480729457
20	34	33	1.9514695032231
20	35	34	-1.8532302480866
20	36	35	-4.5
20	37	36	-4.0784090393085
20	38	37	-2.0572219460093
20	39	38	1.16995933637
20	40	39	-0.32455016366014
20	41	40	-0.57348257570993
20	42	41	0.57831109820399
20	43	42	2.2375093692681
20	44	43	1.7794792897301
20	45	44	1.7156894817483
20	46	45	1.3384441748261
20	47	46	1.4383627034957
20	48	47	1.374846388842
20	49	48	-1.3963326063537
20	50	49	-3.8581130183654
20	51	50	-3.1047087057613
20	52	51	-4.379110261512
20	53	52	-0.18787527613743
20	54	53	-0.03734609110979
20	55	54	-0.047985730948652
20	56	55	-0.017982223394692
20	57	56	-0.0024558778735839
20	58	57	-0.00040971408788343
20	59	58	-0.00017588282335206
20	60	59	-0.00010567368811323
20	61	60	0
20	62	61	0
20	63	62	0
20	64	63	0
20	65	64	0
20	66	65	0
20	67	66	0
20	68	67	0
20	69	68	0
20	70	69	0
20	71	70	0
20	72	71	0
20	73	72	0
20	74	73	0
20	75	74	0
20	76	75	0
20	77	76	0
20	78	77	0
20	79	78	0
20	80	79	0
20	81	80	0
20	82	81	0
20	83	82	0
20	84	83	0
20	85	84	0
20	86	85	0
20	88	86	0
20	89	87	0
20	90	88	0
20	91	89	0
20	92	90	0
20	93	91	0
20	94	92	0
20	95	93	0
20	96	94	0
20	98	95	0
20	99	96	0
20	100	97	0
20	101	98	0
20	102	99	0
20	103	100	0
20	104	101	0
20	105	102	0
21	11	10	6.9142819653787
21	12	11	8.1567057698801
21	13	12	2.8845228425357
21	14	13	0.973
21	15	14	3.6985398066645
21	16	15	4.4815122380636
21	17	16	0.973
21	18	17	0.973
21	19	18	2.7883629314799
21	20	19	0.973
21	21	20	0.973
21	22	21	5.0572650157909
21	23	22	3.4977330615883
21	24	23	5.4737696227362
21	25	24	0.973
21	26	25	0.973
21	27	26	0.973
21	28	27	1.3171618964914
21	29	28	5.3224792992254
21	30	29	4.6420838264562
21	31	30	3.401290669579
21	32	31	4.6437790353842
21	33	32	8.032260809162
21	34	33	9.0763351484366
21	35	34	0.973
21	36	35	0.973
21	37	36	0.973
21	38	37	0.973
21	39	38	2.2589844876702
21	40	39	0.973
21	41	40	0.973
21	42	41	1.70353886195
21	43	42	4.2884678835899
21	44	43	4.5624889066439
21	45	44	5.2752284705116
21	46	45	4.9979955153592
21	47	46	5.859835575869
21	48	47	6.2613755195574
21	49	48	0.973
21	50	49	0.973
21	51	50	0.973
21	52	51	0.973
21	53	52	0.973
21	54	53	1.1127120789379
21	55	54	1.1107749298571
21	56	55	1.110138179598
21	57	56	1.1100329377538
21	58	57	1.1100135544849
21	59	58	1.1100050932194
21	60	59	0.973
21	61	60	0.973
21	62	61	0.973
21	63	62	0.973
21	64	63	0.973
21	65	64	0.973
21	66	65	0.973
21	67	66	0.973
21	68	67	0.973
21	69	68	0.973
21	70	69	0.973
21	71	70	0.973
21	72	71	0.973
21	73	72	0.973
21	74	73	0.973
21	75	74	0.973
21	76	75	0.973
21	77	76	0.973
21	78	77	0.973
21	79	78	0.973
21	80	79	0.973
21	81	80	0.973
21	82	81	0.973
21	83	82	0.973
21	84	83	0.973
21	85	84	0.973
21	86	85	0.973
21	88	86	0.973
21	89	87	0.973
21	90	88	0.973
21	91	89	0.973
21	92	90	0.973
21	93	91	0.973
21	94	92	0.973
21	95	93	0.973
21	96	94	0.973
21	98	95	0.973
21	99	96	0.973
21	100	97	0.973
21	101	98	0.973
21	102	99	0.973
21	103	100	0.973
21	104	101	0.973
21	105	102	0.973
22	11	10	8.9871852251235
22	12	11	10.514998750947
22	13	12	12.080390618649
22	14	13	11.144559553685
22	15	14	11.216949229525
22	16	15	12.147916501318
22	17	16	11.794337126683
22	18	17	11.068580126763
22	19	18	12.02399224774
22	20	19	11.631603309838
22	21	20	11.929619486234
22	22	21	11.731702747825
22	23	22	8.6690699306743
22	24	23	4.3501730411507
22	25	24	5.6840378264248
22	26	25	3.5592506935379
22	27	26	4.2060904698459
22	28	27	6.0184931104782
22	29	28	8.3316400824593
22	30	29	8.0674378358678
22	31	30	4.6429056413905
22	32	31	3.469389583459
22	33	32	3.9888681650752
22	34	33	4.6736384185268
22	35	34	5.7461681665973
22	36	35	4.7806189761529
22	37	36	1.6008062877145
22	38	37	0.43265688411829
22	39	38	0.22235023123467
22	40	39	0.08902746177085
22	41	40	0.066035540836588
22	42	41	0.015267290575396
22	43	42	0.0069105747550118
22	44	43	0.00022040795064514
22	45	44	0
22	46	45	0.00015742049591032
22	47	46	0
22	48	47	0
22	49	48	0
22	50	49	0
22	51	50	0
22	52	51	0
22	53	52	0
22	54	53	0
22	55	54	0
22	56	55	0
22	57	56	0
22	58	57	0
22	59	58	0
22	60	59	0
22	61	60	0
22	62	61	0
22	63	62	0
22	64	63	0
22	65	64	0
22	66	65	0
22	67	66	0
22	68	67	0
22	69	68	0
22	70	69	0
22	71	70	0
22	72	71	0
22	73	72	0
22	74	73	0
22	75	74	0
22	76	75	0
22	77	76	0
22	78	77	0
22	79	78	0
22	80	79	0
22	81	80	0
22	82	81	0
22	83	82	0
22	84	83	0
22	85	84	0
22	86	85	0
22	88	86	0
22	89	87	0
22	90	88	0
22	91	89	0
22	92	90	0
22	93	91	0
22	94	92	0
22	95	93	0
22	96	94	0
22	98	95	0
22	99	96	0
22	100	97	0
22	101	98	0
22	102	99	0
22	103	100	0
22	104	101	0
22	105	102	0
23	11	10	170.81065403036
23	12	11	174.17966210299
23	13	12	180.3755358679
23	14	13	187.14904073321
23	15	14	195.82242450708
23	16	15	200.62131272485
23	17	16	202.4808223171
23	18	17	202.57497064682
23	19	18	202.58119817102
23	20	19	202.58163843806
23	21	20	202.58163843806
23	22	21	202.58163843806
23	23	22	202.58163843806
23	24	23	202.58163843806
23	25	24	202.58163843806
23	26	25	202.58163843806
23	27	26	202.58163843806
23	28	27	202.58163843806
23	29	28	202.58163843806
23	30	29	202.58163843806
23	31	30	202.58163843806
23	32	31	202.58163843806
23	33	32	202.58163843806
23	34	33	202.58163843806
23	35	34	202.58163843806
23	36	35	202.58163843806
23	37	36	202.58163843806
23	38	37	202.58163843806
23	39	38	202.58163843806
23	40	39	202.58163843806
23	41	40	202.58163843806
23	42	41	202.58163843806
23	43	42	202.58163843806
23	44	43	202.58163843806
23	45	44	202.58163843806
23	46	45	202.58163843806
23	47	46	202.58163843806
23	48	47	202.58163843806
23	49	48	202.58163843806
23	50	49	202.58163843806
23	51	50	202.58163843806
23	52	51	202.58163843806
23	53	52	202.58163843806
23	54	53	202.58163843806
23	55	54	202.58163843806
23	56	55	202.58163843806
23	57	56	202.58163843806
23	58	57	202.58163843806
23	59	58	202.58163843806
23	60	59	202.58163843806
23	61	60	202.58163843806
23	62	61	202.58163843806
23	63	62	202.58163843806
23	64	63	202.58163843806
23	65	64	202.58163843806
23	66	65	202.58163843806
23	67	66	202.58163843806
23	68	67	202.58163843806
23	69	68	202.58163843806
23	70	69	202.58163843806
23	71	70	202.58163843806
23	72	71	202.58163843806
23	73	72	202.58163843806
23	74	73	202.58163843806
23	75	74	202.58163843806
23	76	75	202.58163843806
23	77	76	202.58163843806
23	78	77	202.58163843806
23	79	78	202.58163843806
23	80	79	202.58163843806
23	81	80	202.58163843806
23	82	81	202.58163843806
23	83	82	202.58163843806
23	84	83	202.58163843806
23	85	84	202.58163843806
23	86	85	202.58163843806
23	88	86	202.58163843806
23	89	87	202.58163843806
23	90	88	202.58163843806
23	91	89	202.58163843806
23	92	90	202.58163843806
23	93	91	202.58163843806
23	94	92	202.58163843806
23	95	93	202.58163843806
23	96	94	202.58163843806
23	98	95	202.58163843806
23	99	96	202.58163843806
23	100	97	202.58163843806
23	101	98	202.58163843806
23	102	99	202.58163843806
23	103	100	202.58163843806
23	104	101	202.58163843806
23	105	102	202.58163843806
24	11	10	237.88461375213
24	12	11	242.71981317428
24	13	12	243.13760382698
24	14	13	241.55858719049
24	15	14	239.52100558385
24	16	15	238.39363400433
24	17	16	237.95679151686
24	18	17	237.93467386245
24	19	18	237.93321087071
24	20	19	237.93310744164
24	21	20	237.93310744164
24	22	21	237.93310744164
24	23	22	237.93310744164
24	24	23	237.93310744164
24	25	24	237.93310744164
24	26	25	237.93310744164
24	27	26	237.93310744164
24	28	27	237.93310744164
24	29	28	237.93310744164
24	30	29	237.93310744164
24	31	30	237.93310744164
24	32	31	237.93310744164
24	33	32	237.93310744164
24	34	33	237.93310744164
24	35	34	237.93310744164
24	36	35	237.93310744164
24	37	36	237.93310744164
24	38	37	237.93310744164
24	39	38	237.93310744164
24	40	39	237.93310744164
24	41	40	237.93310744164
24	42	41	237.93310744164
24	43	42	237.93310744164
24	44	43	237.93310744164
24	45	44	237.93310744164
24	46	45	237.93310744164
24	47	46	237.93310744164
24	48	47	237.93310744164
24	49	48	237.93310744164
24	50	49	237.93310744164
24	51	50	237.93310744164
24	52	51	237.93310744164
24	53	52	237.93310744164
24	54	53	237.93310744164
24	55	54	237.93310744164
24	56	55	237.93310744164
24	57	56	237.93310744164
24	58	57	237.93310744164
24	59	58	237.93310744164
24	60	59	237.93310744164
24	61	60	237.93310744164
24	62	61	237.93310744164
24	63	62	237.93310744164
24	64	63	237.93310744164
24	65	64	237.93310744164
24	66	65	237.93310744164
24	67	66	237.93310744164
24	68	67	237.93310744164
24	69	68	237.93310744164
24	70	69	237.93310744164
24	71	70	237.93310744164
24	72	71	237.93310744164
24	73	72	237.93310744164
24	74	73	237.93310744164
24	75	74	237.93310744164
24	76	75	237.93310744164
24	77	76	237.93310744164
24	78	77	237.93310744164
24	79	78	237.93310744164
24	80	79	237.93310744164
24	81	80	237.93310744164
24	82	81	237.93310744164
24	83	82	237.93310744164
24	84	83	237.93310744164
24	85	84	237.93310744164
24	86	85	237.93310744164
24	88	86	237.93310744164
24	89	87	237.93310744164
24	90	88	237.93310744164
24	91	89	237.93310744164
24	92	90	237.93310744164
24	93	91	237.93310744164
24	94	92	237.93310744164
24	95	93	237.93310744164
24	96	94	237.93310744164
24	98	95	237.93310744164
24	99	96	237.93310744164
24	100	97	237.93310744164
24	101	98	237.93310744164
24	102	99	237.93310744164
24	103	100	237.93310744164
24	104	101	237.93310744164
24	105	102	237.93310744164
25	11	10	1.3621651400579
25	12	11	1.5278135258239
25	13	12	1.5653918677013
25	14	13	-0.93583106496371
25	15	14	0.072389675839805
25	16	15	0.93096727179363
25	17	16	-0.35357937463559
25	18	17	-0.72575699992012
25	19	18	0.95541212097742
25	20	19	-0.39238893790171
25	21	20	0.29801617639605
25	22	21	-0.19791673840955
25	23	22	-3.0626328171506
25	24	23	-4.3188968895236
25	25	24	1.3338647852741
25	26	25	-2.1247871328869
25	27	26	0.64683977630795
25	28	27	1.8124026406324
25	29	28	2.313146971981
25	30	29	-0.26420224659151
25	31	30	-3.4245321944773
25	32	31	-1.1735160579315
25	33	32	0.51947858161616
25	34	33	0.68477025345159
25	35	34	1.0725297480705
25	36	35	-0.96554919044437
25	37	36	-3.1798126884384
25	38	37	-1.1681494035962
25	39	38	-0.21030665288362
25	40	39	-0.13332276946382
25	41	40	-0.022991920934263
25	42	41	-0.050768250261192
25	43	42	-0.0083567158203846
25	44	43	-0.0066901668043667
25	45	44	-0.00022040795064514
25	46	45	0.00015742049591032
25	47	46	-0.00015742049591032
25	48	47	0
25	49	48	0
25	50	49	0
25	51	50	0
25	52	51	0
25	53	52	0
25	54	53	0
25	55	54	0
25	56	55	0
25	57	56	0
25	58	57	0
25	59	58	0
25	60	59	0
25	61	60	0
25	62	61	0
25	63	62	0
25	64	63	0
25	65	64	0
25	66	65	0
25	67	66	0
25	68	67	0
25	69	68	0
25	70	69	0
25	71	70	0
25	72	71	0
25	73	72	0
25	74	73	0
25	75	74	0
25	76	75	0
25	77	76	0
25	78	77	0
25	79	78	0
25	80	79	0
25	81	80	0
25	82	81	0
25	83	82	0
25	84	83	0
25	85	84	0
25	86	85	0
25	88	86	0
25	89	87	0
25	90	88	0
25	91	89	0
25	92	90	0
25	93	91	0
25	94	92	0
25	95	93	0
25	96	94	0
25	98	95	0
25	99	96	0
25	100	97	0
25	101	98	0
25	102	99	0
25	103	100	0
25	104	101	0
25	105	102	0
26	11	10	4.5609280926869
26	12	11	5.5962972852863
26	13	12	6.4130598924778
26	14	13	0.973
26	15	14	1.9771713292363
26	16	15	4.5871666187564
26	17	16	0.973
26	18	17	0.973
26	19	18	4.6192036537142
26	20	19	0.973
26	21	20	2.6991311869988
26	22	21	1.2655205492693
26	23	22	0.973
26	24	23	0.973
26	25	24	3.2283614153224
26	26	25	0.973
26	27	26	1.9754564434387
26	28	27	4.0492828255161
26	29	28	6.2099719714086
26	30	29	0.973
26	31	30	0.973
26	32	31	0.973
26	33	32	1.8076697351871
26	34	33	2.1161757130336
26	35	34	2.8899898038086
26	36	35	0.973
26	37	36	0.973
26	38	37	0.973
26	39	38	0.973
26	40	39	0.973
26	41	40	1.1128196746634
26	42	41	1.1105496968616
26	43	42	1.1103194484767
26	44	43	1.1100102771091
26	45	44	0.973
26	46	45	1.110007599937
26	47	46	0.973
26	48	47	0.973
26	49	48	0.973
26	50	49	0.973
26	51	50	0.973
26	52	51	0.973
26	53	52	0.973
26	54	53	0.973
26	55	54	0.973
26	56	55	0.973
26	57	56	0.973
26	58	57	0.973
26	59	58	0.973
26	60	59	0.973
26	61	60	0.973
26	62	61	0.973
26	63	62	0.973
26	64	63	0.973
26	65	64	0.973
26	66	65	0.973
26	67	66	0.973
26	68	67	0.973
26	69	68	0.973
26	70	69	0.973
26	71	70	0.973
26	72	71	0.973
26	73	72	0.973
26	74	73	0.973
26	75	74	0.973
26	76	75	0.973
26	77	76	0.973
26	78	77	0.973
26	79	78	0.973
26	80	79	0.973
26	81	80	0.973
26	82	81	0.973
26	83	82	0.973
26	84	83	0.973
26	85	84	0.973
26	86	85	0.973
26	88	86	0.973
26	89	87	0.973
26	90	88	0.973
26	91	89	0.973
26	92	90	0.973
26	93	91	0.973
26	94	92	0.973
26	95	93	0.973
26	96	94	0.973
26	98	95	0.973
26	99	96	0.973
26	100	97	0.973
26	101	98	0.973
26	102	99	0.973
26	103	100	0.973
26	104	101	0.973
26	105	102	0.973
31	11	10	5.0266351108206
31	12	11	6.2103429329603
31	13	12	6.3430843213129
31	14	13	6.957411651362
31	15	14	8.9114919692765
31	16	15	4.9306308736148
31	17	16	1.9105582354206
31	18	17	0.09673295983076
31	19	18	0.0063984868408268
31	20	19	0.00045235357619419
31	21	20	0
31	22	21	0
31	23	22	0
31	24	23	0
31	25	24	0
31	26	25	0
31	27	26	0
31	28	27	0
31	29	28	0
31	30	29	0
31	31	30	0
31	32	31	0
31	33	32	0
31	34	33	0
31	35	34	0
31	36	35	0
31	37	36	0
31	38	37	0
31	39	38	0
31	40	39	0
31	41	40	0
31	42	41	0
31	43	42	0
31	44	43	0
31	45	44	0
31	46	45	0
31	47	46	0
31	48	47	0
31	49	48	0
31	50	49	0
31	51	50	0
31	52	51	0
31	53	52	0
31	54	53	0
31	55	54	0
31	56	55	0
31	57	56	0
31	58	57	0
31	59	58	0
31	60	59	0
31	61	60	0
31	62	61	0
31	63	62	0
31	64	63	0
31	65	64	0
31	66	65	0
31	67	66	0
31	68	67	0
31	69	68	0
31	70	69	0
31	71	70	0
31	72	71	0
31	73	72	0
31	74	73	0
31	75	74	0
31	76	75	0
31	77	76	0
31	78	77	0
31	79	78	0
31	80	79	0
31	81	80	0
31	82	81	0
31	83	82	0
31	84	83	0
31	85	84	0
31	86	85	0
31	88	86	0
31	89	87	0
31	90	88	0
31	91	89	0
31	92	90	0
31	93	91	0
31	94	92	0
31	95	93	0
31	96	94	0
31	98	95	0
31	99	96	0
31	100	97	0
31	101	98	0
31	102	99	0
31	103	100	0
31	104	101	0
31	105	102	0
32	11	10	1.3689486144111
32	12	11	1.1837078221396
32	13	12	0.13274138835259
32	14	13	0.61432733004913
32	15	14	1.9540803179145
32	16	15	-3.9808610956617
32	17	16	-3.0200726381942
32	18	17	-1.8138252755899
32	19	18	-0.090334472989933
32	20	19	-0.0059461332646326
32	21	20	-0.00045235357619419
32	22	21	0
32	23	22	0
32	24	23	0
32	25	24	0
32	26	25	0
32	27	26	0
32	28	27	0
32	29	28	0
32	30	29	0
32	31	30	0
32	32	31	0
32	33	32	0
32	34	33	0
32	35	34	0
32	36	35	0
32	37	36	0
32	38	37	0
32	39	38	0
32	40	39	0
32	41	40	0
32	42	41	0
32	43	42	0
32	44	43	0
32	45	44	0
32	46	45	0
32	47	46	0
32	48	47	0
32	49	48	0
32	50	49	0
32	51	50	0
32	52	51	0
32	53	52	0
32	54	53	0
32	55	54	0
32	56	55	0
32	57	56	0
32	58	57	0
32	59	58	0
32	60	59	0
32	61	60	0
32	62	61	0
32	63	62	0
32	64	63	0
32	65	64	0
32	66	65	0
32	67	66	0
32	68	67	0
32	69	68	0
32	70	69	0
32	71	70	0
32	72	71	0
32	73	72	0
32	74	73	0
32	75	74	0
32	76	75	0
32	77	76	0
32	78	77	0
32	79	78	0
32	80	79	0
32	81	80	0
32	82	81	0
32	83	82	0
32	84	83	0
32	85	84	0
32	86	85	0
32	88	86	0
32	89	87	0
32	90	88	0
32	91	89	0
32	92	90	0
32	93	91	0
32	94	92	0
32	95	93	0
32	96	94	0
32	98	95	0
32	99	96	0
32	100	97	0
32	101	98	0
32	102	99	0
32	103	100	0
32	104	101	0
32	105	102	0
33	11	10	3.0225882076596
33	12	11	3.2033605787546
33	13	12	1.6424861525357
33	14	13	2.5068015464393
33	15	14	5.8019860423265
33	16	15	0.973
33	17	16	0.973
33	18	17	0.973
33	19	18	1.1101693640807
33	20	19	1.1100211733057
33	21	20	0.973
33	22	21	0.973
33	23	22	0.973
33	24	23	0.973
33	25	24	0.973
33	26	25	0.973
33	27	26	0.973
33	28	27	0.973
33	29	28	0.973
33	30	29	0.973
33	31	30	0.973
33	32	31	0.973
33	33	32	0.973
33	34	33	0.973
33	35	34	0.973
33	36	35	0.973
33	37	36	0.973
33	38	37	0.973
33	39	38	0.973
33	40	39	0.973
33	41	40	0.973
33	42	41	0.973
33	43	42	0.973
33	44	43	0.973
33	45	44	0.973
33	46	45	0.973
33	47	46	0.973
[...]
338	100	97	227.37140361495
338	101	98	227.37077128825
338	102	99	227.37077128825
338	103	100	227.37077128825
338	104	101	227.37077128825
338	105	102	227.37077128825
339	78	77	2.3999017584138
339	79	78	4.433633792703
339	80	79	7.0070247269934
339	81	80	8.4499684680253
339	82	81	5.5330497683082
339	83	82	1.3187021037502
339	84	83	0.025193449624037
339	85	84	0.010480407343548
339	86	85	0.0039820735093298
339	88	86	0.00051439481882597
339	89	87	0.00026072656668411
339	90	88	0
339	91	89	0
339	92	90	0
339	93	91	0
339	94	92	0
339	95	93	0
339	96	94	0
339	98	95	0
339	99	96	0
339	100	97	0
339	101	98	0
339	102	99	0
339	103	100	0
339	104	101	0
339	105	102	0
340	79	78	2.0337320342893
340	80	79	2.5733909342904
340	81	80	1.4429437410319
340	82	81	-2.9169186997171
340	83	82	-4.214347664558
340	84	83	-1.2935086541262
340	85	84	-0.01471304228049
340	86	85	-0.0064983338342177
340	88	86	-0.0034676786905039
340	89	87	-0.00025366825214186
340	90	88	-0.00026072656668411
340	91	89	0
340	92	90	0
340	93	91	0
340	94	92	0
340	95	93	0
340	96	94	0
340	98	95	0
340	99	96	0
340	100	97	0
340	101	98	0
340	102	99	0
340	103	100	0
340	104	101	0
340	105	102	0
341	79	78	3.5049838976795
341	80	79	5.8254674701045
341	81	80	4.5118345723094
341	82	81	0.973
341	83	82	0.973
341	84	83	0.973
341	85	84	1.1104684130756
341	86	85	1.1101858589128
341	88	86	1.1100243845209
341	89	87	1.1100125615103
341	90	88	0.973
341	91	89	0.973
341	92	90	0.973
341	93	91	0.973
341	94	92	0.973
341	95	93	0.973
341	96	94	0.973
341	98	95	0.973
341	99	96	0.973
341	100	97	0.973
341	101	98	0.973
341	102	99	0.973
341	103	100	0.973
341	104	101	0.973
341	105	102	0.973
342	79	78	1.8848307949491
342	80	79	4.2287200241815
342	81	80	6.5270773419878
342	82	81	9.1240015745629
342	83	82	11.43012936844
342	84	83	13.542183161154
342	85	84	14.820752237198
342	86	85	15.089416114214
342	88	86	14.811154497784
342	89	87	15.135789990747
342	90	88	14.53716351315
342	91	89	14.822019097298
342	92	90	10.922004354145
342	93	91	7.1526239882737
342	94	92	3.874961273936
342	95	93	0.21097632877604
342	96	94	0.033589948901559
342	98	95	0.0062348583080063
342	99	96	0.0026917401575446
342	100	97	0.00098196194977132
342	101	98	0.00064690186080523
342	102	99	0
342	103	100	0
342	104	101	0
342	105	102	0
343	80	79	2.3438892292324
343	81	80	2.2983573178062
343	82	81	2.5969242325751
343	83	82	2.3061277938774
343	84	83	2.1120537927141
343	85	84	1.2785690760436
343	86	85	0.26866387701593
343	88	86	-0.27826161643025
343	89	87	0.32463549296372
343	90	88	-0.59862647759728
343	91	89	0.28485558414832
343	92	90	-3.9000147431538
343	93	91	-3.7693803658709
343	94	92	-3.2776627143377
343	95	93	-3.6639849451599
343	96	94	-0.17738637987448
343	98	95	-0.027355090593553
343	99	96	-0.0035431181504617
343	100	97	-0.0017097782077733
343	101	98	-0.00033506008896609
343	102	99	-0.00064690186080523
343	103	100	0
343	104	101	0
343	105	102	0
344	80	79	3.7096869536794
344	81	80	5.0659291221544
344	82	81	7.3306442932999
344	83	82	8.1519415512284
344	84	83	8.8857373134928
344	85	84	6.6924823873919
344	86	85	3.132310493806
344	88	86	1.1313892745184
344	89	87	3.3446545273213
344	90	88	0.973
344	91	89	3.143360465401
344	92	90	0.973
344	93	91	0.973
344	94	92	0.973
344	95	93	0.973
344	96	94	0.973
344	98	95	1.1102596658047
344	99	96	1.110127551093
344	100	97	1.1100469652207
344	101	98	1.1100311543088
344	102	99	0.973
344	103	100	0.973
344	104	101	0.973
344	105	102	0.973
345	84	83	290.85928889175
345	85	84	291.31468779231
345	86	85	292.04724847401
345	88	86	293.20690988371
345	89	87	294.59874579657
345	90	88	295.66548246743
345	91	89	296.97555407932
345	92	90	293.9162211256
345	93	91	280.04224518121
345	94	92	264.32190605181
345	95	93	250.59616406936
345	96	94	240.9801829038
345	98	95	236.47557168843
345	99	96	235.45158726461
345	100	97	235.15536793108
345	101	98	235.00425823612
345	102	99	234.96720040807
345	103	100	234.95845943717
345	104	101	234.95688348453
345	105	102	234.95612638509
346	84	83	225.60431093681
346	85	84	227.70740839109
346	86	85	231.09047871224
346	88	86	236.4459614672
346	89	87	243.13230627565
346	90	88	251.56243148386
346	91	89	261.91556550624
346	92	90	273.63727308321
346	93	91	278.12839568614
346	94	92	279.33796901878
346	95	93	280.39407164711
346	96	94	281.15944462942
346	98	95	279.41943979045
346	99	96	278.64851512518
346	100	97	278.42550119524
346	101	98	278.31173560634
346	102	99	278.28383596937
346	103	100	278.27725517585
346	104	101	278.27606869221
346	105	102	278.27549869659
347	85	84	2.1519116990967
347	86	85	3.4615935595939
347	88	86	5.4797869548202
347	89	87	6.8320789159043
347	90	88	8.4976396590937
347	91	89	10.436049298407
347	92	90	12.595032377588
347	93	91	14.859014274599
347	94	92	15.767344207457
347	95	93	13.766783054659
347	96	94	9.6467414339124
347	98	95	5.1467414339124
347	99	96	1.2817883506493
347	100	97	0.37079713531197
347	101	98	0.18915389937198
347	102	99	0.046387709808234
347	103	100	0.010941645603481
347	104	101	0.0019727231133384
347	105	102	0.00094771094340083
348	86	85	1.3096818604972
348	88	86	2.0181933952263
348	89	87	1.3522919610841
348	90	88	1.6655607431894
348	91	89	1.9384096393129
348	92	90	2.1589830791811
348	93	91	2.2639818970114
348	94	92	0.90832993285779
348	95	93	-2.0005611527975
348	96	94	-4.1200416207469
348	98	95	-4.5
348	99	96	-3.864953083263
348	100	97	-0.91099121533737
348	101	98	-0.18164323593999
348	102	99	-0.14276618956375
348	103	100	-0.035446064204753
348	104	101	-0.0089689224901423
348	105	102	-0.0010250121699376
349	86	85	2.373413353105
349	88	86	4.0548296584613
349	89	87	3.6956300503796
349	90	88	4.9875648098182
349	91	89	6.5937036179257
349	92	90	8.4555416661774
349	93	91	10.237238646852
349	94	92	5.6843233246582
349	95	93	0.973
349	96	94	0.973
349	98	95	0.973
349	99	96	0.973
349	100	97	0.973
349	101	98	0.973
349	102	99	0.973
349	103	100	1.1104343560812
349	104	101	1.1100909001023
349	105	102	1.1100454834649
350	88	86	256.00189441318
350	89	87	256.60295157335
350	90	88	258.27102481934
350	91	89	261.3184471993
350	92	90	265.07960089075
350	93	91	267.66882283082
350	94	92	270.41189346696
350	95	93	273.62939770001
350	96	94	276.85651620237
350	98	95	280.28269777041
350	99	96	283.75309224076
350	100	97	282.88981335597
350	101	98	269.92422998717
350	102	99	256.76255657036
350	103	100	250.38707072896
350	104	101	244.45915579091
350	105	102	241.0284605216
351	88	86	48.185792646343
351	89	87	49.393728343542
351	90	88	52.647487065865
351	91	89	58.041225500461
351	92	90	64.698221707286
351	93	91	73.386424125092
351	94	92	83.457996908523
351	95	93	95.271519913456
351	96	94	107.12034307139
351	98	95	119.70005450033
351	99	96	132.44209986907
351	100	97	141.10108309223
351	101	98	138.73406923471
351	102	99	136.63850396148
351	103	100	147.9161931431
351	104	101	158.76545394
351	105	102	168.92748712766
352	89	87	209.90446328057
352	90	88	209.79306368843
352	91	89	209.52149049735
352	92	90	209.13875892385
352	93	91	209.68542370881
352	94	92	213.66802272427
352	95	93	223.69737201097
352	96	94	234.42231277194
352	98	95	242.0597859907
352	99	96	246.36934280313
352	100	97	252.5570557528
352	101	98	259.45337065523
352	102	99	272.62470303893
352	103	100	286.4460087979
352	104	101	288.2286216571
352	105	102	284.67291063064
353	89	87	222.12294732126
353	90	88	220.57263633059
353	91	89	216.79324275484
353	92	90	211.46689502352
353	93	91	204.22969745434
353	94	92	196.30660760969
353	95	93	192.34703323245
353	96	94	186.16022768798
353	98	95	175.87037336809
353	99	96	163.10977936629
353	100	97	150.58537517388
353	101	98	140.06778286881
353	102	99	142.47487256658
353	103	100	145.00074631518
353	104	101	136.66895074906
353	105	102	123.61319954653
354	89	87	1.3492667172803
354	90	88	3.6574543836527
354	91	89	6.1953367885435
354	92	90	7.6463354686974
354	93	91	9.0904637896456
354	94	92	10.438847318944
354	95	93	12.244320286321
354	96	94	12.28090771069
354	98	95	13.03844888448
354	99	96	13.206702567266
354	100	97	13.062585691248
354	101	98	13.180390250685
354	102	99	13.53961603353
354	103	100	12.955547617657
354	104	101	12.379379391905
354	105	102	10.719832843403
355	90	88	310.86651536576
355	91	89	313.26726573633
355	92	90	317.06106672282
355	93	91	322.8565176623
355	94	92	330.86591163065
355	95	93	341.22427133354
355	96	94	350.74080991195
355	98	95	360.44177451362
355	99	96	370.27851973817
355	100	97	379.92176925141
355	101	98	390.29059354291
355	102	99	400.48371254246
355	103	100	409.89481128273
355	104	101	420.42959270792
355	105	102	430.05887375752
356	90	88	190.60598553674
356	91	89	189.78089161839
356	92	90	188.47703172534
356	93	91	186.48524141558
356	94	92	183.73255944832
356	95	93	180.94402078071
356	96	94	177.92320530115
356	98	95	174.59802136968
356	99	96	171.22629613393
356	100	97	168.31839314579
356	101	98	165.01625302841
356	102	99	161.74559136681
356	103	100	158.7258562058
356	104	101	155.34556547024
356	105	102	152.2558222465
357	90	88	2.3081876663724
357	91	89	2.5378824048908
357	92	90	1.4509986801539
357	93	91	1.4441283209482
357	94	92	1.348383529298
357	95	93	1.8054729673779
357	96	94	0.036587424368436
357	98	95	0.75754117378965
357	99	96	0.1682536827866
357	100	97	-0.14411687601823
357	101	98	0.11780455943663
357	102	99	0.35922578284517
357	103	100	-0.58406841587275
357	104	101	-0.57616822575219
357	105	102	-1.6595465485017
358	90	88	3.3254992525632
358	91	89	5.2200816108898
358	92	90	4.1940098406378
358	93	91	4.7817182808442
358	94	92	5.1108647977077
358	95	93	7.1979830494889
358	96	94	1.9818242920855
358	98	95	4.3241333115746
358	99	96	2.4954040185935
358	100	97	1.4923490276647
358	101	98	2.3315481044516
358	102	99	3.1646153542739
358	103	100	0.973
358	104	101	0.973
358	105	102	0.973
359	90	88	1.5542567674769
359	91	89	3.7890127060935
359	92	90	5.3399040948134
359	93	91	7.3699396957876
359	94	92	9.1321788753383
359	95	93	11.103955121408
359	96	94	12.8085791789
359	98	95	13.176022004572
359	99	96	13.471262656505
359	100	97	14.021544332084
359	101	98	13.138871810565
359	102	99	13.388521616281
359	103	100	14.049212754521
359	104	101	13.776534231732
359	105	102	13.530321852564
360	91	89	2.2347559386166
360	92	90	1.5508913887199
360	93	91	2.0300356009742
360	94	92	1.7622391795507
360	95	93	1.9717762460699
360	96	94	1.7046240574913
360	98	95	0.36744282567283
360	99	96	0.29524065193255
360	100	97	0.55028167557903
360	101	98	-0.88267252151854
360	102	99	0.24964980571531
360	103	100	0.66069113824051
360	104	101	-0.27267852278892
360	105	102	-0.24621237916872
361	91	89	3.3384791381111
361	92	90	3.3775313707272
361	93	91	5.1081645158285
361	94	92	5.4993245650022
361	95	93	7.0487082167564
361	96	94	7.1839569632269
361	98	95	3.123709791327
361	99	96	2.9442127277824
361	100	97	3.9005665461157
361	101	98	0.973
361	102	99	2.7830932484435
361	103	100	4.2809121328545
361	104	101	1.1107898241427
361	105	102	1.1886731672767
362	91	89	2.5380508180708
362	92	90	4.0107708887197
362	93	91	6.1268964813324
362	94	92	8.467456326494
362	95	93	10.72631656921
362	96	94	9.9924116887365
362	98	95	10.255301271982
362	99	96	10.398840729308
362	100	97	10.074757456032
362	101	98	10.882563658755
362	102	99	10.705281425685
362	103	100	9.8839678555707
362	104	101	11.064110987003
362	105	102	10.113112931138
363	92	90	211.08820452257
363	93	91	211.64248019112
363	94	92	212.81907337332
363	95	93	214.57983371752
363	96	94	216.81871724754
363	98	95	224.89216281495
363	99	96	234.95935142238
363	100	97	245.6893230522
363	101	98	257.59626207195
363	102	99	269.92836866068
363	103	100	281.62349705515
363	104	101	293.66736491029
363	105	102	299.81678997043
364	92	90	247.4531831351
364	93	91	249.44357113774
364	94	92	253.66868345413
364	95	93	259.99152326743
364	96	94	268.03128970559
364	98	95	274.71001026809
364	99	96	282.29034933375
364	100	97	283.98890111969
364	101	98	283.06526702029
364	102	99	282.11615344502
364	103	100	281.21606350144
364	104	101	277.68771554156
364	105	102	267.49399065702
365	92	90	1.4727200706489
365	93	91	2.1161255926127
365	94	92	2.3405598451616
365	95	93	2.258860242716
365	96	94	-0.73390488047357
365	98	95	0.26288958324585
365	99	96	0.14353945732582
365	100	97	-0.32408327327575
365	101	98	0.80780620272271
365	102	99	-0.17728223307058
365	103	100	-0.82131357011385
365	104	101	1.1801431314321
365	105	102	-0.95099805586506
366	92	90	2.7329647364072
366	93	91	4.5514413947745
366	94	92	6.3508329112892
366	95	93	7.5806919370383
366	96	94	0.973
366	98	95	2.3540909808699
366	99	96	2.0752462010534
366	100	97	0.973
366	101	98	3.872666582329
366	102	99	1.2823751918976
366	103	100	0.973
366	104	101	4.9156449609745
366	105	102	0.973
367	93	91	222.06043106416
367	94	92	224.45602864105
367	95	93	228.39501021311
367	96	94	234.72754016355
367	98	95	242.91289785502
367	99	96	252.47099085139
367	100	97	263.51750841679
367	101	98	273.61192294934
367	102	99	279.63316515468
367	103	100	283.22845332208
367	104	101	283.3396545179
367	105	102	283.39739459775
368	93	91	234.55468117897
368	94	92	234.22012358634
368	95	93	233.67002443576
368	96	94	232.78565387371
368	98	95	230.55331124146
368	99	96	225.36674915041
368	100	97	219.82368007324
368	101	98	217.66670229732
368	102	99	216.8118345768
368	103	100	216.30139242958
368	104	101	216.28560460548
368	105	102	216.27740693983
369	93	91	2.0660697015235
369	94	92	4.3857662580675
369	95	93	6.5632568868576
369	96	94	8.345467227092
369	98	95	10.629057579907
369	99	96	12.601649553903
369	100	97	11.53051370747
369	101	98	11.942411535854
369	102	99	12.368254409094
369	103	100	11.729409106952
369	104	101	12.700297459253
369	105	102	12.644235992796
370	94	92	240.4758846566
370	95	93	239.65297531468
370	96	94	238.13843149094
370	98	95	233.98783034528
370	99	96	229.45687223902
370	100	97	228.19784702558
370	101	98	228.18248168308
370	102	99	228.17100893741
370	103	100	228.17100893741
370	104	101	228.17100893741
370	105	102	228.17100893741
371	94	92	170.56113458175
371	95	93	172.9940018793
371	96	94	177.47163258757
371	98	95	182.17232752259
371	99	96	186.45056286595
371	100	97	187.63936356549
371	101	98	187.65387187693
371	102	99	187.6647047085
371	103	100	187.6647047085
371	104	101	187.6647047085
371	105	102	187.6647047085
372	94	92	2.3196965565439
372	95	93	2.1774906287901
372	96	94	1.7822103402345
372	98	95	2.2835903528146
372	99	96	1.9725919739961
372	100	97	-1.0711358464323
372	101	98	0.41189782838337
372	102	99	0.42584287323989
372	103	100	-0.63884530214127
372	104	101	0.97088835230097
372	105	102	-0.056061466457322
373	94	92	3.7812113440425
373	95	93	4.8969636880851
373	96	94	5.1507632979693
373	98	95	7.5833293876498
373	99	96	7.8935256332277
373	100	97	0.973
373	101	98	3.028937290888
373	102	99	3.1507579344237
373	103	100	0.973
373	104	101	4.8835705539588
373	105	102	1.7358696711633
374	94	92	2.4191098714015
374	95	93	3.9776418611174
374	96	94	6.3946824215585
374	98	95	8.6118007426849
374	99	96	10.87581534849
374	100	97	12.365116533265
374	101	98	10.407304648431
374	102	99	6.0822876476732
374	103	100	3.6317384460991
374	104	101	0.11232859211865
374	105	102	0.058325468805751
375	95	93	211.08820452257
375	96	94	211.632493793
375	98	95	212.83027385078
375	99	96	214.70607675619
375	100	97	217.07395356815
375	101	98	225.95869842898
375	102	99	236.60720859648
375	103	100	250.55924629488
375	104	101	264.07270607526
375	105	102	277.49409380481
376	95	93	247.4531831351
376	96	94	249.40771026898
376	98	95	253.70890404691
376	99	96	260.4448583926
376	100	97	268.82309592804
376	101	98	275.51308468094
376	102	99	283.53114421687
376	103	100	283.60685552793
376	104	101	282.56682169152
376	105	102	281.53387397887
377	95	93	1.558531989716
377	96	94	2.4170405604411
377	98	95	2.2171183211263
377	99	96	2.2640146058053
377	100	97	1.4893011847744
377	101	98	-1.9578118848332
377	102	99	-4.3250170007581
377	103	100	-2.4505492015742
377	104	101	-3.5194098539804
377	105	102	-0.054003123312895
378	95	93	2.801722086952
378	96	94	5.1675815716487
378	98	95	6.185938491191
378	99	96	7.6876322646603
378	100	97	6.3192499476897
378	101	98	0.973
378	102	99	0.973
378	103	100	0.973
378	104	101	0.973
378	105	102	1.1120545473909
379	95	93	2.5682627978036
379	96	94	4.7268227009103
379	98	95	6.3865163002629
379	99	96	6.2315799700205
379	100	97	1.7315799700205
379	101	98	0.021132475359194
379	102	99	0.015778855262061
379	103	100	0
379	104	101	0
379	105	102	0
380	96	94	290.85928889175
380	98	95	291.35860381401
380	99	96	292.3730854261
380	100	97	293.7582088123
380	101	98	295.09305816184
380	102	99	296.30541134859
380	103	100	296.5441303475
380	104	101	287.79036293521
380	105	102	274.36822313849
381	96	94	225.60431093681
381	98	95	227.91021887947
381	99	96	232.59524050155
381	100	97	238.9919390087
381	101	98	247.03872033731
381	102	99	256.619612642
381	103	100	268.04035907112
381	104	101	276.69158557807
381	105	102	278.56497314768
382	96	94	2.1585599031067
382	98	95	1.6596935993526
382	99	96	-0.15493633024234
382	100	97	-4.5
382	101	98	-1.7104474946613
382	102	99	-0.0053536200971336
382	103	100	-0.015778855262061
382	104	101	0
382	105	102	0
383	96	94	3.8067324439049
383	98	95	3.9966674916407
383	99	96	0.973
383	100	97	0.973
383	101	98	0.973
383	102	99	1.1107408141076
383	103	100	0.973
383	104	101	0.973
383	105	102	0.973
384	96	94	2.0288452737732
384	98	95	4.4647406099597
384	99	96	6.9920795171754
384	100	97	8.7174729374936
384	101	98	11.121520165959
384	102	99	13.329321485339
384	103	100	14.352569812058
384	104	101	13.553070378384
384	105	102	13.460728446335
385	98	95	2.4358953361865
385	99	96	2.5273389072157
385	100	97	1.7253934203181
385	101	98	2.4040472284658
385	102	99	2.2078013193794
385	103	100	1.023248326719
385	104	101	-0.79949943367392
385	105	102	-0.09234193204902
386	98	95	3.9546302223731
386	99	96	5.7376728957311
386	100	97	5.2166278993219
386	101	98	8.2171136013567
386	102	99	9.0640479776251
386	103	100	5.6148776937379
386	104	101	0.973
386	105	102	1.6850939471796
387	98	95	2.3594295493793
387	99	96	4.7937639877433
387	100	97	6.5451699944213
387	101	98	8.1647070074687
387	102	99	9.6576229186496
387	103	100	11.499045146629
387	104	101	13.321443731058
387	105	102	13.662912228623
388	99	96	211.08820452257
388	100	97	211.70465632129
388	101	98	212.68456001175
388	102	99	214.13885508714
388	103	100	216.23385471523
388	104	101	222.75518253109
388	105	102	232.0143465084
389	99	96	247.4531831351
389	100	97	249.66684383499
389	101	98	253.18564983701
389	102	99	258.40798167408
389	103	100	265.93106515387
389	104	101	273.10091802198
389	105	102	280.07283492446
390	99	96	2.434334438364
390	100	97	1.751406006678
390	101	98	1.6195370130474
390	102	99	1.4929159111809
390	103	100	1.8414222279796
390	104	101	1.8223985844292
390	105	102	0.34146849756424
391	99	96	4.1638073415183
391	100	97	4.2142843912464
391	101	98	4.740899270768
391	102	99	5.1338378035331
391	103	100	6.9082536306463
391	104	101	7.8217655698384
391	105	102	3.1290881054497
392	100	97	2.2978320284514
392	101	98	3.6526036414318
392	102	99	5.420903645712
392	103	100	7.8091381273465
392	104	101	10.134165330138
392	105	102	11.590201013815
393	101	98	1.3547716129804
393	102	99	1.7683000042802
393	103	100	2.3882344816346
393	104	101	2.3250272027915
393	105	102	1.4560356836766
394	101	98	2.4832782770871
394	102	99	3.6963942528481
394	103	100	6.0253684243749
394	104	101	7.3735119639366
394	105	102	5.879994858786
395	102	99	211.08820452257
395	103	100	211.66303981019
395	104	101	212.79490312329
395	105	102	214.5557721837
396	102	99	247.4531831351
396	103	100	249.51740013919
396	104	101	253.58188878061
396	105	102	259.9051189907
397	102	99	173.04125
397	103	100	172.86203014127
397	104	101	172.56104746288
397	105	102	172.09582289163
398	102	99	230.45875
398	103	100	228.51600673132
398	104	101	225.25335449763
398	105	102	220.0794319287
399	103	100	2.1427059467183
399	104	101	4.2190350942081
399	105	102	6.5636621279409
400	103	100	1.9499120630324
400	104	101	3.2746915408177
400	105	102	5.1935304757673
401	104	101	2.0763291474897
401	105	102	2.3446270337328
402	104	101	3.4316493337055
402	105	102	5.1615842162911
403	104	101	1.3247794777853
403	105	102	1.9188389349496
404	104	101	2.3167319826369
404	105	102	3.7751738841517
405	105	102	310.86651536576
406	105	102	190.60598553674

