version 3
run Default-0-20230515-21:49:49-44121
attr configname Default
attr datetime 20230515-21:49:49
attr datetimef 20230515-214949
attr experiment Default
attr inifile omnetpp.ini
attr iterationvars ""
attr iterationvarsd ""
attr iterationvarsf ""
attr measurement ""
attr network pavillonsNetwork
attr processid 44121
attr repetition 0
attr replication #0
attr resultdir results
attr runnumber 0
attr seedset 0
config image-path ../inet4.4/images:../veins-veins-5.2/images
config cmdenv-express-mode true
config cmdenv-autoflush true
config cmdenv-status-frequency 1s
config **.cmdenv-log-level info
config image-path ../../images
config network pavillonsNetwork
config debug-on-errors true
config print-undisposed true
config sim-time-limit 300s
config **.scalar-recording true
config **.vector-recording true
config *.playgroundSizeX 2500m
config *.playgroundSizeY 2500m
config *.playgroundSizeZ 50m
config *.annotations.draw true
config *.obstacles.debug false
config *.manager.updateInterval 1s
config *.manager.host "\"localhost\""
config *.manager.port 9999
config *.manager.autoShutdown true
config *.manager.launchConfig "xmldoc(\"pavillons.launchd.xml\")"
config *.rsu[0].mobility.x 2000
config *.rsu[0].mobility.y 2000
config *.rsu[0].mobility.z 3
config *.rsu[*].applType "\"TraCIDemoRSU11p\""
config *.rsu[*].appl.headerLength "80 bit"
config *.rsu[*].appl.sendBeacons false
config *.rsu[*].appl.dataOnSch false
config *.rsu[*].appl.beaconInterval 1s
config *.rsu[*].appl.beaconUserPriority 7
config *.rsu[*].appl.dataUserPriority 5
config *.rsu[*].nic.phy80211p.antennaOffsetZ "0 m"
config *.connectionManager.sendDirect true
config *.connectionManager.maxInterfDist 2600m
config *.connectionManager.drawMaxIntfDist false
config *.**.nic.mac1609_4.useServiceChannel false
config *.**.nic.mac1609_4.txPower 20mW
config *.**.nic.mac1609_4.bitrate 6Mbps
config *.**.nic.phy80211p.minPowerLevel -110dBm
config *.**.nic.phy80211p.useNoiseFloor true
config *.**.nic.phy80211p.noiseFloor -98dBm
config *.**.nic.phy80211p.decider "xmldoc(\"config.xml\")"
config *.**.nic.phy80211p.analogueModels "xmldoc(\"config.xml\")"
config *.**.nic.phy80211p.usePropagationDelay true
config *.**.nic.phy80211p.antenna "xmldoc(\"antenna.xml\", \"/root/Antenna[@id='monopole']\")"
config *.node[*].nic.phy80211p.antennaOffsetY "0 m"
config *.node[*].nic.phy80211p.antennaOffsetZ "1.895 m"
config *.node[*].applType "\"MyVeinsApp\""
config *.node[*].appl.headerLength "80 bit"
config *.node[*].appl.sendBeacons false
config *.node[*].appl.dataOnSch false
config *.node[*].appl.beaconInterval 1s
config *.node[*].veinsmobility.x 0
config *.node[*].veinsmobility.y 0
config *.node[*].veinsmobility.z 0
config *.node[*].veinsmobility.setHostSpeed false
config *.node[*0].veinsmobility.accidentCount 1
config *.node[*0].veinsmobility.accidentStart 10s
config *.node[*0].veinsmobility.accidentDuration 30s

par pavillonsNetwork.node[1].appl typename "\"org.car2x.veins.modules.application.traci.MyVeinsApp\""
par pavillonsNetwork.node[1].appl headerLength 80bit
attr unit bit
par pavillonsNetwork.node[1].appl sendBeacons false
par pavillonsNetwork.node[1].appl beaconLengthBits 256bit
attr unit bit
par pavillonsNetwork.node[1].appl beaconUserPriority 7
par pavillonsNetwork.node[1].appl beaconInterval 1s
attr unit s
par pavillonsNetwork.node[1].appl dataLengthBits 1024bit
attr unit bit
par pavillonsNetwork.node[1].appl dataOnSch false
par pavillonsNetwork.node[1].appl dataUserPriority 7
par pavillonsNetwork.node[1].appl avoidBeaconSynchronization true
par pavillonsNetwork.node[1].appl sendWSA false
par pavillonsNetwork.node[1].appl wsaLengthBits 250bit
attr unit bit
par pavillonsNetwork.node[1].appl wsaInterval 1s
attr unit s
par pavillonsNetwork.node[1].appl appName "\"My first Veins App!\""
scalar pavillonsNetwork.node[1].appl generatedWSMs 0
scalar pavillonsNetwork.node[1].appl receivedWSMs 0
scalar pavillonsNetwork.node[1].appl generatedBSMs 0
scalar pavillonsNetwork.node[1].appl receivedBSMs 0
scalar pavillonsNetwork.node[1].appl generatedWSAs 0
scalar pavillonsNetwork.node[1].appl receivedWSAs 0
par pavillonsNetwork.node[1].nic.phy80211p typename "\"org.car2x.veins.modules.phy.PhyLayer80211p\""
par pavillonsNetwork.node[1].nic.phy80211p recordStats false
par pavillonsNetwork.node[1].nic.phy80211p usePropagationDelay true
par pavillonsNetwork.node[1].nic.phy80211p noiseFloor -98dBm
attr unit dBm
par pavillonsNetwork.node[1].nic.phy80211p useNoiseFloor true
par pavillonsNetwork.node[1].nic.phy80211p antenna "<Antenna type=\"SampledAntenna1D\" id=\"monopole\">...</Antenna> at /home/simu5g/simu5g-workspace/pavillons//antenna.xml:35"
par pavillonsNetwork.node[1].nic.phy80211p antennaOffsetX 0m
attr unit m
par pavillonsNetwork.node[1].nic.phy80211p antennaOffsetY 0m
attr unit m
par pavillonsNetwork.node[1].nic.phy80211p antennaOffsetZ 1.895m
attr unit m
par pavillonsNetwork.node[1].nic.phy80211p antennaOffsetYaw 0rad
attr unit rad
par pavillonsNetwork.node[1].nic.phy80211p analogueModels "<root>...</root> at /home/simu5g/simu5g-workspace/pavillons//config.xml:34"
par pavillonsNetwork.node[1].nic.phy80211p decider "<root>...</root> at /home/simu5g/simu5g-workspace/pavillons//config.xml:34"
par pavillonsNetwork.node[1].nic.phy80211p minPowerLevel -110dBm
attr unit dBm
par pavillonsNetwork.node[1].nic.phy80211p timeRXToTX 0s
attr unit s
par pavillonsNetwork.node[1].nic.phy80211p timeRXToSleep 0s
attr unit s
par pavillonsNetwork.node[1].nic.phy80211p timeTXToRX 0s
attr unit s
par pavillonsNetwork.node[1].nic.phy80211p timeTXToSleep 0s
attr unit s
par pavillonsNetwork.node[1].nic.phy80211p timeSleepToRX 0s
attr unit s
par pavillonsNetwork.node[1].nic.phy80211p timeSleepToTX 0s
attr unit s
par pavillonsNetwork.node[1].nic.phy80211p initialRadioState 0
par pavillonsNetwork.node[1].nic.phy80211p radioMinAtt 1
par pavillonsNetwork.node[1].nic.phy80211p radioMaxAtt 0
par pavillonsNetwork.node[1].nic.phy80211p nbRadioChannels 1
par pavillonsNetwork.node[1].nic.phy80211p initialRadioChannel 0
par pavillonsNetwork.node[1].nic.phy80211p ccaThreshold -65dBm
attr unit dBm
par pavillonsNetwork.node[1].nic.phy80211p collectCollisionStatistics false
par pavillonsNetwork.node[1].nic.phy80211p allowTxDuringRx false
scalar pavillonsNetwork.node[1].nic.phy80211p busyTime 0
par pavillonsNetwork.node[1].nic.mac1609_4 typename "\"org.car2x.veins.modules.mac.ieee80211p.Mac1609_4\""
par pavillonsNetwork.node[1].nic.mac1609_4 notAffectedByHostState false
par pavillonsNetwork.node[1].nic.mac1609_4 headerLength 0bit
attr unit bit
par pavillonsNetwork.node[1].nic.mac1609_4 address "\"auto\""
par pavillonsNetwork.node[1].nic.mac1609_4 useServiceChannel false
par pavillonsNetwork.node[1].nic.mac1609_4 serviceChannel 1
par pavillonsNetwork.node[1].nic.mac1609_4 bitrate 6000000bps
attr unit bps
par pavillonsNetwork.node[1].nic.mac1609_4 syncOffset 0.0003s
attr unit s
par pavillonsNetwork.node[1].nic.mac1609_4 txPower 20mW
attr unit mW
par pavillonsNetwork.node[1].nic.mac1609_4 queueSize 0
par pavillonsNetwork.node[1].nic.mac1609_4 dot11RTSThreshold 12000bit
attr unit bit
par pavillonsNetwork.node[1].nic.mac1609_4 dot11ShortRetryLimit 7
par pavillonsNetwork.node[1].nic.mac1609_4 dot11LongRetryLimit 4
par pavillonsNetwork.node[1].nic.mac1609_4 ackLength 112bit
attr unit bit
par pavillonsNetwork.node[1].nic.mac1609_4 useAcks false
par pavillonsNetwork.node[1].nic.mac1609_4 frameErrorRate 0
par pavillonsNetwork.node[1].nic.mac1609_4 ackErrorRate 0
scalar pavillonsNetwork.node[1].nic.mac1609_4 ReceivedUnicastPackets 0
scalar pavillonsNetwork.node[1].nic.mac1609_4 ReceivedBroadcasts 0
scalar pavillonsNetwork.node[1].nic.mac1609_4 SentPackets 0
scalar pavillonsNetwork.node[1].nic.mac1609_4 SentAcknowledgements 0
scalar pavillonsNetwork.node[1].nic.mac1609_4 RetriesExceeded 0
scalar pavillonsNetwork.node[1].nic.mac1609_4 SNIRLostPackets 0
scalar pavillonsNetwork.node[1].nic.mac1609_4 RXTXLostPackets 0
scalar pavillonsNetwork.node[1].nic.mac1609_4 TotalLostPackets 0
scalar pavillonsNetwork.node[1].nic.mac1609_4 DroppedPacketsInMac 0
scalar pavillonsNetwork.node[1].nic.mac1609_4 TooLittleTime 0
scalar pavillonsNetwork.node[1].nic.mac1609_4 TimesIntoBackoff 0
scalar pavillonsNetwork.node[1].nic.mac1609_4 SlotsBackoff 0
scalar pavillonsNetwork.node[1].nic.mac1609_4 NumInternalContention 0
scalar pavillonsNetwork.node[1].nic.mac1609_4 totalBusyTime 0
scalar pavillonsNetwork.node[1].nic.mac1609_4 retriesExceeded:count 0
attr recordingmode count
attr source org_car2x_veins_modules_mac_sigRetriesExceeded
scalar pavillonsNetwork.node[1].nic.mac1609_4 sentAcks:count 0
attr recordingmode count
attr source org_car2x_veins_modules_mac_sigSentAck
scalar pavillonsNetwork.node[1].nic.mac1609_4 sentPackets:count 0
attr recordingmode count
attr source org_car2x_veins_modules_mac_sigSentPacket
scalar pavillonsNetwork.node[1].nic.mac1609_4 collisions:count 0
attr recordingmode count
attr source org_car2x_veins_modules_mac_sigCollision
scalar pavillonsNetwork.node[1].nic.mac1609_4 channelBusy:timeavg 0
attr recordingmode timeavg
attr source org_car2x_veins_modules_mac_sigChannelBusy
par pavillonsNetwork.node[1].nic typename "\"org.car2x.veins.modules.nic.Nic80211p\""
par pavillonsNetwork.node[1].nic connectionManagerName "\"connectionManager\""
par pavillonsNetwork.node[1].veinsmobility typename "\"org.car2x.veins.modules.mobility.traci.TraCIMobility\""
par pavillonsNetwork.node[1].veinsmobility notAffectedByHostState true
par pavillonsNetwork.node[1].veinsmobility x 0
par pavillonsNetwork.node[1].veinsmobility y 0
par pavillonsNetwork.node[1].veinsmobility z 0
par pavillonsNetwork.node[1].veinsmobility xOrientation 1
par pavillonsNetwork.node[1].veinsmobility yOrientation 0
par pavillonsNetwork.node[1].veinsmobility zOrientation 0
par pavillonsNetwork.node[1].veinsmobility hostPositionOffset 0m
attr unit m
par pavillonsNetwork.node[1].veinsmobility setHostSpeed false
par pavillonsNetwork.node[1].veinsmobility accidentCount 0
par pavillonsNetwork.node[1].veinsmobility accidentStart 42.7096s
attr unit s
par pavillonsNetwork.node[1].veinsmobility accidentDuration "uniform(30s, 60s)"
attr unit s
par pavillonsNetwork.node[1].veinsmobility accidentInterval "uniform(30s, 60s)"
attr unit s
scalar pavillonsNetwork.node[1].veinsmobility startTime 2
scalar pavillonsNetwork.node[1].veinsmobility totalTime 9
scalar pavillonsNetwork.node[1].veinsmobility stopTime 12
scalar pavillonsNetwork.node[1].veinsmobility minSpeed 1.652282136376
scalar pavillonsNetwork.node[1].veinsmobility maxSpeed 13.953659727132
scalar pavillonsNetwork.node[1].veinsmobility totalDistance 78.600185507396
scalar pavillonsNetwork.node[1].veinsmobility totalCO2Emission 39.464242757788
par pavillonsNetwork.node[1] typename "\"org.car2x.veins.nodes.Car\""
par pavillonsNetwork.node[1] applType "\"MyVeinsApp\""
par pavillonsNetwork.node[1] nicType "\"Nic80211p\""
par pavillonsNetwork.node[1] veinsmobilityType "\"org.car2x.veins.modules.mobility.traci.TraCIMobility\""
par pavillonsNetwork.node[12].appl typename "\"org.car2x.veins.modules.application.traci.MyVeinsApp\""
par pavillonsNetwork.node[12].appl headerLength 80bit
attr unit bit
par pavillonsNetwork.node[12].appl sendBeacons false
par pavillonsNetwork.node[12].appl beaconLengthBits 256bit
attr unit bit
par pavillonsNetwork.node[12].appl beaconUserPriority 7
par pavillonsNetwork.node[12].appl beaconInterval 1s
attr unit s
par pavillonsNetwork.node[12].appl dataLengthBits 1024bit
attr unit bit
par pavillonsNetwork.node[12].appl dataOnSch false
par pavillonsNetwork.node[12].appl dataUserPriority 7
par pavillonsNetwork.node[12].appl avoidBeaconSynchronization true
par pavillonsNetwork.node[12].appl sendWSA false
par pavillonsNetwork.node[12].appl wsaLengthBits 250bit
attr unit bit
par pavillonsNetwork.node[12].appl wsaInterval 1s
attr unit s
par pavillonsNetwork.node[12].appl appName "\"My first Veins App!\""
scalar pavillonsNetwork.node[12].appl generatedWSMs 0
scalar pavillonsNetwork.node[12].appl receivedWSMs 0
scalar pavillonsNetwork.node[12].appl generatedBSMs 0
scalar pavillonsNetwork.node[12].appl receivedBSMs 0
scalar pavillonsNetwork.node[12].appl generatedWSAs 0
scalar pavillonsNetwork.node[12].appl receivedWSAs 0
par pavillonsNetwork.node[12].nic.phy80211p typename "\"org.car2x.veins.modules.phy.PhyLayer80211p\""
par pavillonsNetwork.node[12].nic.phy80211p recordStats false
par pavillonsNetwork.node[12].nic.phy80211p usePropagationDelay true
par pavillonsNetwork.node[12].nic.phy80211p noiseFloor -98dBm
attr unit dBm
par pavillonsNetwork.node[12].nic.phy80211p useNoiseFloor true
par pavillonsNetwork.node[12].nic.phy80211p antenna "<Antenna type=\"SampledAntenna1D\" id=\"monopole\">...</Antenna> at /home/simu5g/simu5g-workspace/pavillons//antenna.xml:35"
par pavillonsNetwork.node[12].nic.phy80211p antennaOffsetX 0m
attr unit m
par pavillonsNetwork.node[12].nic.phy80211p antennaOffsetY 0m
attr unit m
par pavillonsNetwork.node[12].nic.phy80211p antennaOffsetZ 1.895m
attr unit m
par pavillonsNetwork.node[12].nic.phy80211p antennaOffsetYaw 0rad
attr unit rad
par pavillonsNetwork.node[12].nic.phy80211p analogueModels "<root>...</root> at /home/simu5g/simu5g-workspace/pavillons//config.xml:34"
par pavillonsNetwork.node[12].nic.phy80211p decider "<root>...</root> at /home/simu5g/simu5g-workspace/pavillons//config.xml:34"
par pavillonsNetwork.node[12].nic.phy80211p minPowerLevel -110dBm
attr unit dBm
par pavillonsNetwork.node[12].nic.phy80211p timeRXToTX 0s
attr unit s
par pavillonsNetwork.node[12].nic.phy80211p timeRXToSleep 0s
attr unit s
par pavillonsNetwork.node[12].nic.phy80211p timeTXToRX 0s
attr unit s
par pavillonsNetwork.node[12].nic.phy80211p timeTXToSleep 0s
attr unit s
par pavillonsNetwork.node[12].nic.phy80211p timeSleepToRX 0s
attr unit s
par pavillonsNetwork.node[12].nic.phy80211p timeSleepToTX 0s
attr unit s
par pavillonsNetwork.node[12].nic.phy80211p initialRadioState 0
par pavillonsNetwork.node[12].nic.phy80211p radioMinAtt 1
par pavillonsNetwork.node[12].nic.phy80211p radioMaxAtt 0
par pavillonsNetwork.node[12].nic.phy80211p nbRadioChannels 1
par pavillonsNetwork.node[12].nic.phy80211p initialRadioChannel 0
par pavillonsNetwork.node[12].nic.phy80211p ccaThreshold -65dBm
attr unit dBm
par pavillonsNetwork.node[12].nic.phy80211p collectCollisionStatistics false
par pavillonsNetwork.node[12].nic.phy80211p allowTxDuringRx false
scalar pavillonsNetwork.node[12].nic.phy80211p busyTime 0
par pavillonsNetwork.node[12].nic.mac1609_4 typename "\"org.car2x.veins.modules.mac.ieee80211p.Mac1609_4\""
par pavillonsNetwork.node[12].nic.mac1609_4 notAffectedByHostState false
par pavillonsNetwork.node[12].nic.mac1609_4 headerLength 0bit
attr unit bit
par pavillonsNetwork.node[12].nic.mac1609_4 address "\"auto\""
par pavillonsNetwork.node[12].nic.mac1609_4 useServiceChannel false
par pavillonsNetwork.node[12].nic.mac1609_4 serviceChannel 1
par pavillonsNetwork.node[12].nic.mac1609_4 bitrate 6000000bps
attr unit bps
par pavillonsNetwork.node[12].nic.mac1609_4 syncOffset 0.0003s
attr unit s
par pavillonsNetwork.node[12].nic.mac1609_4 txPower 20mW
attr unit mW
par pavillonsNetwork.node[12].nic.mac1609_4 queueSize 0
par pavillonsNetwork.node[12].nic.mac1609_4 dot11RTSThreshold 12000bit
attr unit bit
par pavillonsNetwork.node[12].nic.mac1609_4 dot11ShortRetryLimit 7
par pavillonsNetwork.node[12].nic.mac1609_4 dot11LongRetryLimit 4
par pavillonsNetwork.node[12].nic.mac1609_4 ackLength 112bit
attr unit bit
par pavillonsNetwork.node[12].nic.mac1609_4 useAcks false
par pavillonsNetwork.node[12].nic.mac1609_4 frameErrorRate 0
par pavillonsNetwork.node[12].nic.mac1609_4 ackErrorRate 0
scalar pavillonsNetwork.node[12].nic.mac1609_4 ReceivedUnicastPackets 0
scalar pavillonsNetwork.node[12].nic.mac1609_4 ReceivedBroadcasts 0
scalar pavillonsNetwork.node[12].nic.mac1609_4 SentPackets 0
scalar pavillonsNetwork.node[12].nic.mac1609_4 SentAcknowledgements 0
scalar pavillonsNetwork.node[12].nic.mac1609_4 RetriesExceeded 0
scalar pavillonsNetwork.node[12].nic.mac1609_4 SNIRLostPackets 0
scalar pavillonsNetwork.node[12].nic.mac1609_4 RXTXLostPackets 0
scalar pavillonsNetwork.node[12].nic.mac1609_4 TotalLostPackets 0
scalar pavillonsNetwork.node[12].nic.mac1609_4 DroppedPacketsInMac 0
scalar pavillonsNetwork.node[12].nic.mac1609_4 TooLittleTime 0
scalar pavillonsNetwork.node[12].nic.mac1609_4 TimesIntoBackoff 0
scalar pavillonsNetwork.node[12].nic.mac1609_4 SlotsBackoff 0
scalar pavillonsNetwork.node[12].nic.mac1609_4 NumInternalContention 0
scalar pavillonsNetwork.node[12].nic.mac1609_4 totalBusyTime 0
scalar pavillonsNetwork.node[12].nic.mac1609_4 retriesExceeded:count 0
attr recordingmode count
attr source org_car2x_veins_modules_mac_sigRetriesExceeded
scalar pavillonsNetwork.node[12].nic.mac1609_4 sentAcks:count 0
attr recordingmode count
attr source org_car2x_veins_modules_mac_sigSentAck
scalar pavillonsNetwork.node[12].nic.mac1609_4 sentPackets:count 0
attr recordingmode count
attr source org_car2x_veins_modules_mac_sigSentPacket
scalar pavillonsNetwork.node[12].nic.mac1609_4 collisions:count 0
attr recordingmode count
attr source org_car2x_veins_modules_mac_sigCollision
scalar pavillonsNetwork.node[12].nic.mac1609_4 channelBusy:timeavg 0
attr recordingmode timeavg
attr source org_car2x_veins_modules_mac_sigChannelBusy
par pavillonsNetwork.node[12].nic typename "\"org.car2x.veins.modules.nic.Nic80211p\""
par pavillonsNetwork.node[12].nic connectionManagerName "\"connectionManager\""
par pavillonsNetwork.node[12].veinsmobility typename "\"org.car2x.veins.modules.mobility.traci.TraCIMobility\""
par pavillonsNetwork.node[12].veinsmobility notAffectedByHostState true
par pavillonsNetwork.node[12].veinsmobility x 0
par pavillonsNetwork.node[12].veinsmobility y 0
par pavillonsNetwork.node[12].veinsmobility z 0
par pavillonsNetwork.node[12].veinsmobility xOrientation 1
par pavillonsNetwork.node[12].veinsmobility yOrientation 0
par pavillonsNetwork.node[12].veinsmobility zOrientation 0
par pavillonsNetwork.node[12].veinsmobility hostPositionOffset 0m
attr unit m
par pavillonsNetwork.node[12].veinsmobility setHostSpeed false
par pavillonsNetwork.node[12].veinsmobility accidentCount 0
par pavillonsNetwork.node[12].veinsmobility accidentStart 53.227s
attr unit s
par pavillonsNetwork.node[12].veinsmobility accidentDuration "uniform(30s, 60s)"
attr unit s
par pavillonsNetwork.node[12].veinsmobility accidentInterval "uniform(30s, 60s)"
attr unit s
scalar pavillonsNetwork.node[12].veinsmobility startTime 14
scalar pavillonsNetwork.node[12].veinsmobility totalTime 9
scalar pavillonsNetwork.node[12].veinsmobility stopTime 24
scalar pavillonsNetwork.node[12].veinsmobility minSpeed 1.3519775079098
scalar pavillonsNetwork.node[12].veinsmobility maxSpeed 17.043979927013
scalar pavillonsNetwork.node[12].veinsmobility totalDistance 83.768014581416
scalar pavillonsNetwork.node[12].veinsmobility totalCO2Emission 52.796985646017
par pavillonsNetwork.node[12] typename "\"org.car2x.veins.nodes.Car\""
par pavillonsNetwork.node[12] applType "\"MyVeinsApp\""
par pavillonsNetwork.node[12] nicType "\"Nic80211p\""
par pavillonsNetwork.node[12] veinsmobilityType "\"org.car2x.veins.modules.mobility.traci.TraCIMobility\""
par pavillonsNetwork.node[6].appl typename "\"org.car2x.veins.modules.application.traci.MyVeinsApp\""
par pavillonsNetwork.node[6].appl headerLength 80bit
attr unit bit
par pavillonsNetwork.node[6].appl sendBeacons false
par pavillonsNetwork.node[6].appl beaconLengthBits 256bit
attr unit bit
par pavillonsNetwork.node[6].appl beaconUserPriority 7
par pavillonsNetwork.node[6].appl beaconInterval 1s
attr unit s
par pavillonsNetwork.node[6].appl dataLengthBits 1024bit
attr unit bit
par pavillonsNetwork.node[6].appl dataOnSch false
par pavillonsNetwork.node[6].appl dataUserPriority 7
par pavillonsNetwork.node[6].appl avoidBeaconSynchronization true
par pavillonsNetwork.node[6].appl sendWSA false
par pavillonsNetwork.node[6].appl wsaLengthBits 250bit
attr unit bit
par pavillonsNetwork.node[6].appl wsaInterval 1s
attr unit s
par pavillonsNetwork.node[6].appl appName "\"My first Veins App!\""
scalar pavillonsNetwork.node[6].appl generatedWSMs 0
scalar pavillonsNetwork.node[6].appl receivedWSMs 0
scalar pavillonsNetwork.node[6].appl generatedBSMs 0
scalar pavillonsNetwork.node[6].appl receivedBSMs 0
scalar pavillonsNetwork.node[6].appl generatedWSAs 0
scalar pavillonsNetwork.node[6].appl receivedWSAs 0
par pavillonsNetwork.node[6].nic.phy80211p typename "\"org.car2x.veins.modules.phy.PhyLayer80211p\""
par pavillonsNetwork.node[6].nic.phy80211p recordStats false
par pavillonsNetwork.node[6].nic.phy80211p usePropagationDelay true
par pavillonsNetwork.node[6].nic.phy80211p noiseFloor -98dBm
attr unit dBm
par pavillonsNetwork.node[6].nic.phy80211p useNoiseFloor true
par pavillonsNetwork.node[6].nic.phy80211p antenna "<Antenna type=\"SampledAntenna1D\" id=\"monopole\">...</Antenna> at /home/simu5g/simu5g-workspace/pavillons//antenna.xml:35"
par pavillonsNetwork.node[6].nic.phy80211p antennaOffsetX 0m
attr unit m
par pavillonsNetwork.node[6].nic.phy80211p antennaOffsetY 0m
attr unit m
par pavillonsNetwork.node[6].nic.phy80211p antennaOffsetZ 1.895m
attr unit m
par pavillonsNetwork.node[6].nic.phy80211p antennaOffsetYaw 0rad
attr unit rad
par pavillonsNetwork.node[6].nic.phy80211p analogueModels "<root>...</root> at /home/simu5g/simu5g-workspace/pavillons//config.xml:34"
par pavillonsNetwork.node[6].nic.phy80211p decider "<root>...</root> at /home/simu5g/simu5g-workspace/pavillons//config.xml:34"
par pavillonsNetwork.node[6].nic.phy80211p minPowerLevel -110dBm
attr unit dBm
par pavillonsNetwork.node[6].nic.phy80211p timeRXToTX 0s
attr unit s
par pavillonsNetwork.node[6].nic.phy80211p timeRXToSleep 0s
attr unit s
par pavillonsNetwork.node[6].nic.phy80211p timeTXToRX 0s
attr unit s
par pavillonsNetwork.node[6].nic.phy80211p timeTXToSleep 0s
attr unit s
par pavillonsNetwork.node[6].nic.phy80211p timeSleepToRX 0s
attr unit s
par pavillonsNetwork.node[6].nic.phy80211p timeSleepToTX 0s
attr unit s
par pavillonsNetwork.node[6].nic.phy80211p initialRadioState 0
par pavillonsNetwork.node[6].nic.phy80211p radioMinAtt 1
par pavillonsNetwork.node[6].nic.phy80211p radioMaxAtt 0
par pavillonsNetwork.node[6].nic.phy80211p nbRadioChannels 1
par pavillonsNetwork.node[6].nic.phy80211p initialRadioChannel 0
par pavillonsNetwork.node[6].nic.phy80211p ccaThreshold -65dBm
attr unit dBm
par pavillonsNetwork.node[6].nic.phy80211p collectCollisionStatistics false
par pavillonsNetwork.node[6].nic.phy80211p allowTxDuringRx false
scalar pavillonsNetwork.node[6].nic.phy80211p busyTime 0
par pavillonsNetwork.node[6].nic.mac1609_4 typename "\"org.car2x.veins.modules.mac.ieee80211p.Mac1609_4\""
par pavillonsNetwork.node[6].nic.mac1609_4 notAffectedByHostState false
par pavillonsNetwork.node[6].nic.mac1609_4 headerLength 0bit
attr unit bit
par pavillonsNetwork.node[6].nic.mac1609_4 address "\"auto\""
par pavillonsNetwork.node[6].nic.mac1609_4 useServiceChannel false
par pavillonsNetwork.node[6].nic.mac1609_4 serviceChannel 1
par pavillonsNetwork.node[6].nic.mac1609_4 bitrate 6000000bps
attr unit bps
par pavillonsNetwork.node[6].nic.mac1609_4 syncOffset 0.0003s
attr unit s
par pavillonsNetwork.node[6].nic.mac1609_4 txPower 20mW
attr unit mW
par pavillonsNetwork.node[6].nic.mac1609_4 queueSize 0
par pavillonsNetwork.node[6].nic.mac1609_4 dot11RTSThreshold 12000bit
attr unit bit
par pavillonsNetwork.node[6].nic.mac1609_4 dot11ShortRetryLimit 7
par pavillonsNetwork.node[6].nic.mac1609_4 dot11LongRetryLimit 4
par pavillonsNetwork.node[6].nic.mac1609_4 ackLength 112bit
attr unit bit
par pavillonsNetwork.node[6].nic.mac1609_4 useAcks false
par pavillonsNetwork.node[6].nic.mac1609_4 frameErrorRate 0
par pavillonsNetwork.node[6].nic.mac1609_4 ackErrorRate 0
scalar pavillonsNetwork.node[6].nic.mac1609_4 ReceivedUnicastPackets 0
scalar pavillonsNetwork.node[6].nic.mac1609_4 ReceivedBroadcasts 0
scalar pavillonsNetwork.node[6].nic.mac1609_4 SentPackets 0
scalar pavillonsNetwork.node[6].nic.mac1609_4 SentAcknowledgements 0
scalar pavillonsNetwork.node[6].nic.mac1609_4 RetriesExceeded 0
scalar pavillonsNetwork.node[6].nic.mac1609_4 SNIRLostPackets 0
scalar pavillonsNetwork.node[6].nic.mac1609_4 RXTXLostPackets 0
scalar pavillonsNetwork.node[6].nic.mac1609_4 TotalLostPackets 0
scalar pavillonsNetwork.node[6].nic.mac1609_4 DroppedPacketsInMac 0
scalar pavillonsNetwork.node[6].nic.mac1609_4 TooLittleTime 0
scalar pavillonsNetwork.node[6].nic.mac1609_4 TimesIntoBackoff 0
scalar pavillonsNetwork.node[6].nic.mac1609_4 SlotsBackoff 0
scalar pavillonsNetwork.node[6].nic.mac1609_4 NumInternalContention 0
scalar pavillonsNetwork.node[6].nic.mac1609_4 totalBusyTime 0
scalar pavillonsNetwork.node[6].nic.mac1609_4 retriesExceeded:count 0
attr recordingmode count
attr source org_car2x_veins_modules_mac_sigRetriesExceeded
scalar pavillonsNetwork.node[6].nic.mac1609_4 sentAcks:count 0
attr recordingmode count
attr source org_car2x_veins_modules_mac_sigSentAck
scalar pavillonsNetwork.node[6].nic.mac1609_4 sentPackets:count 0
attr recordingmode count
attr source org_car2x_veins_modules_mac_sigSentPacket
scalar pavillonsNetwork.node[6].nic.mac1609_4 collisions:count 0
attr recordingmode count
attr source org_car2x_veins_modules_mac_sigCollision
scalar pavillonsNetwork.node[6].nic.mac1609_4 channelBusy:timeavg 0
attr recordingmode timeavg
attr source org_car2x_veins_modules_mac_sigChannelBusy
par pavillonsNetwork.node[6].nic typename "\"org.car2x.veins.modules.nic.Nic80211p\""
par pavillonsNetwork.node[6].nic connectionManagerName "\"connectionManager\""
par pavillonsNetwork.node[6].veinsmobility typename "\"org.car2x.veins.modules.mobility.traci.TraCIMobility\""
par pavillonsNetwork.node[6].veinsmobility notAffectedByHostState true
par pavillonsNetwork.node[6].veinsmobility x 0
par pavillonsNetwork.node[6].veinsmobility y 0
par pavillonsNetwork.node[6].veinsmobility z 0
par pavillonsNetwork.node[6].veinsmobility xOrientation 1
par pavillonsNetwork.node[6].veinsmobility yOrientation 0
par pavillonsNetwork.node[6].veinsmobility zOrientation 0
par pavillonsNetwork.node[6].veinsmobility hostPositionOffset 0m
attr unit m
par pavillonsNetwork.node[6].veinsmobility setHostSpeed false
par pavillonsNetwork.node[6].veinsmobility accidentCount 0
par pavillonsNetwork.node[6].veinsmobility accidentStart 41.0472s
attr unit s
par pavillonsNetwork.node[6].veinsmobility accidentDuration "uniform(30s, 60s)"
attr unit s
par pavillonsNetwork.node[6].veinsmobility accidentInterval "uniform(30s, 60s)"
attr unit s
scalar pavillonsNetwork.node[6].veinsmobility startTime 8
scalar pavillonsNetwork.node[6].veinsmobility totalTime 25
scalar pavillonsNetwork.node[6].veinsmobility stopTime 34
scalar pavillonsNetwork.node[6].veinsmobility minSpeed 0
scalar pavillonsNetwork.node[6].veinsmobility maxSpeed 11.809670504043
scalar pavillonsNetwork.node[6].veinsmobility totalDistance 121.25983433835
scalar pavillonsNetwork.node[6].veinsmobility totalCO2Emission 68.316910670294
par pavillonsNetwork.node[6] typename "\"org.car2x.veins.nodes.Car\""
par pavillonsNetwork.node[6] applType "\"MyVeinsApp\""
par pavillonsNetwork.node[6] nicType "\"Nic80211p\""
par pavillonsNetwork.node[6] veinsmobilityType "\"org.car2x.veins.modules.mobility.traci.TraCIMobility\""
par pavillonsNetwork.node[9].appl typename "\"org.car2x.veins.modules.application.traci.MyVeinsApp\""
par pavillonsNetwork.node[9].appl headerLength 80bit
attr unit bit
par pavillonsNetwork.node[9].appl sendBeacons false
par pavillonsNetwork.node[9].appl beaconLengthBits 256bit
attr unit bit
par pavillonsNetwork.node[9].appl beaconUserPriority 7
par pavillonsNetwork.node[9].appl beaconInterval 1s
attr unit s
par pavillonsNetwork.node[9].appl dataLengthBits 1024bit
attr unit bit
par pavillonsNetwork.node[9].appl dataOnSch false
par pavillonsNetwork.node[9].appl dataUserPriority 7
par pavillonsNetwork.node[9].appl avoidBeaconSynchronization true
par pavillonsNetwork.node[9].appl sendWSA false
par pavillonsNetwork.node[9].appl wsaLengthBits 250bit
attr unit bit
par pavillonsNetwork.node[9].appl wsaInterval 1s
attr unit s
par pavillonsNetwork.node[9].appl appName "\"My first Veins App!\""
scalar pavillonsNetwork.node[9].appl generatedWSMs 0
scalar pavillonsNetwork.node[9].appl receivedWSMs 0
scalar pavillonsNetwork.node[9].appl generatedBSMs 0
scalar pavillonsNetwork.node[9].appl receivedBSMs 0
scalar pavillonsNetwork.node[9].appl generatedWSAs 0
scalar pavillonsNetwork.node[9].appl receivedWSAs 0
par pavillonsNetwork.node[9].nic.phy80211p typename "\"org.car2x.veins.modules.phy.PhyLayer80211p\""
par pavillonsNetwork.node[9].nic.phy80211p recordStats false
par pavillonsNetwork.node[9].nic.phy80211p usePropagationDelay true
par pavillonsNetwork.node[9].nic.phy80211p noiseFloor -98dBm
attr unit dBm
par pavillonsNetwork.node[9].nic.phy80211p useNoiseFloor true
par pavillonsNetwork.node[9].nic.phy80211p antenna "<Antenna type=\"SampledAntenna1D\" id=\"monopole\">...</Antenna> at /home/simu5g/simu5g-workspace/pavillons//antenna.xml:35"
par pavillonsNetwork.node[9].nic.phy80211p antennaOffsetX 0m
attr unit m
par pavillonsNetwork.node[9].nic.phy80211p antennaOffsetY 0m
attr unit m
par pavillonsNetwork.node[9].nic.phy80211p antennaOffsetZ 1.895m
attr unit m
par pavillonsNetwork.node[9].nic.phy80211p antennaOffsetYaw 0rad
attr unit rad
par pavillonsNetwork.node[9].nic.phy80211p analogueModels "<root>...</root> at /home/simu5g/simu5g-workspace/pavillons//config.xml:34"
par pavillonsNetwork.node[9].nic.phy80211p decider "<root>...</root> at /home/simu5g/simu5g-workspace/pavillons//config.xml:34"
par pavillonsNetwork.node[9].nic.phy80211p minPowerLevel -110dBm
attr unit dBm
par pavillonsNetwork.node[9].nic.phy80211p timeRXToTX 0s
attr unit s
par pavillonsNetwork.node[9].nic.phy80211p timeRXToSleep 0s
attr unit s
par pavillonsNetwork.node[9].nic.phy80211p timeTXToRX 0s
attr unit s
par pavillonsNetwork.node[9].nic.phy80211p timeTXToSleep 0s
attr unit s
par pavillonsNetwork.node[9].nic.phy80211p timeSleepToRX 0s
attr unit s
par pavillonsNetwork.node[9].nic.phy80211p timeSleepToTX 0s
attr unit s
par pavillonsNetwork.node[9].nic.phy80211p initialRadioState 0
par pavillonsNetwork.node[9].nic.phy80211p radioMinAtt 1
par pavillonsNetwork.node[9].nic.phy80211p radioMaxAtt 0
par pavillonsNetwork.node[9].nic.phy80211p nbRadioChannels 1
par pavillonsNetwork.node[9].nic.phy80211p initialRadioChannel 0
par pavillonsNetwork.node[9].nic.phy80211p ccaThreshold -65dBm
attr unit dBm
par pavillonsNetwork.node[9].nic.phy80211p collectCollisionStatistics false
par pavillonsNetwork.node[9].nic.phy80211p allowTxDuringRx false
scalar pavillonsNetwork.node[9].nic.phy80211p busyTime 0
par pavillonsNetwork.node[9].nic.mac1609_4 typename "\"org.car2x.veins.modules.mac.ieee80211p.Mac1609_4\""
par pavillonsNetwork.node[9].nic.mac1609_4 notAffectedByHostState false
par pavillonsNetwork.node[9].nic.mac1609_4 headerLength 0bit
attr unit bit
par pavillonsNetwork.node[9].nic.mac1609_4 address "\"auto\""
par pavillonsNetwork.node[9].nic.mac1609_4 useServiceChannel false
par pavillonsNetwork.node[9].nic.mac1609_4 serviceChannel 1
par pavillonsNetwork.node[9].nic.mac1609_4 bitrate 6000000bps
attr unit bps
par pavillonsNetwork.node[9].nic.mac1609_4 syncOffset 0.0003s
attr unit s
par pavillonsNetwork.node[9].nic.mac1609_4 txPower 20mW
attr unit mW
par pavillonsNetwork.node[9].nic.mac1609_4 queueSize 0
par pavillonsNetwork.node[9].nic.mac1609_4 dot11RTSThreshold 12000bit
attr unit bit
par pavillonsNetwork.node[9].nic.mac1609_4 dot11ShortRetryLimit 7
par pavillonsNetwork.node[9].nic.mac1609_4 dot11LongRetryLimit 4
par pavillonsNetwork.node[9].nic.mac1609_4 ackLength 112bit
attr unit bit
par pavillonsNetwork.node[9].nic.mac1609_4 useAcks false
par pavillonsNetwork.node[9].nic.mac1609_4 frameErrorRate 0
par pavillonsNetwork.node[9].nic.mac1609_4 ackErrorRate 0
scalar pavillonsNetwork.node[9].nic.mac1609_4 ReceivedUnicastPackets 0
scalar pavillonsNetwork.node[9].nic.mac1609_4 ReceivedBroadcasts 0
scalar pavillonsNetwork.node[9].nic.mac1609_4 SentPackets 0
scalar pavillonsNetwork.node[9].nic.mac1609_4 SentAcknowledgements 0
scalar pavillonsNetwork.node[9].nic.mac1609_4 RetriesExceeded 0
scalar pavillonsNetwork.node[9].nic.mac1609_4 SNIRLostPackets 0
scalar pavillonsNetwork.node[9].nic.mac1609_4 RXTXLostPackets 0
scalar pavillonsNetwork.node[9].nic.mac1609_4 TotalLostPackets 0
scalar pavillonsNetwork.node[9].nic.mac1609_4 DroppedPacketsInMac 0
scalar pavillonsNetwork.node[9].nic.mac1609_4 TooLittleTime 0
scalar pavillonsNetwork.node[9].nic.mac1609_4 TimesIntoBackoff 0
scalar pavillonsNetwork.node[9].nic.mac1609_4 SlotsBackoff 0
scalar pavillonsNetwork.node[9].nic.mac1609_4 NumInternalContention 0
scalar pavillonsNetwork.node[9].nic.mac1609_4 totalBusyTime 0
scalar pavillonsNetwork.node[9].nic.mac1609_4 retriesExceeded:count 0
attr recordingmode count
attr source org_car2x_veins_modules_mac_sigRetriesExceeded
scalar pavillonsNetwork.node[9].nic.mac1609_4 sentAcks:count 0
attr recordingmode count
attr source org_car2x_veins_modules_mac_sigSentAck
scalar pavillonsNetwork.node[9].nic.mac1609_4 sentPackets:count 0
attr recordingmode count
attr source org_car2x_veins_modules_mac_sigSentPacket
scalar pavillonsNetwork.node[9].nic.mac1609_4 collisions:count 0
attr recordingmode count
attr source org_car2x_veins_modules_mac_sigCollision
scalar pavillonsNetwork.node[9].nic.mac1609_4 channelBusy:timeavg 0
attr recordingmode timeavg
attr source org_car2x_veins_modules_mac_sigChannelBusy
par pavillonsNetwork.node[9].nic typename "\"org.car2x.veins.modules.nic.Nic80211p\""
par pavillonsNetwork.node[9].nic connectionManagerName "\"connectionManager\""
par pavillonsNetwork.node[9].veinsmobility typename "\"org.car2x.veins.modules.mobility.traci.TraCIMobility\""
par pavillonsNetwork.node[9].veinsmobility notAffectedByHostState true
par pavillonsNetwork.node[9].veinsmobility x 0
par pavillonsNetwork.node[9].veinsmobility y 0
par pavillonsNetwork.node[9].veinsmobility z 0
par pavillonsNetwork.node[9].veinsmobility xOrientation 1
par pavillonsNetwork.node[9].veinsmobility yOrientation 0
par pavillonsNetwork.node[9].veinsmobility zOrientation 0
par pavillonsNetwork.node[9].veinsmobility hostPositionOffset 0m
attr unit m
par pavillonsNetwork.node[9].veinsmobility setHostSpeed false
par pavillonsNetwork.node[9].veinsmobility accidentCount 0
par pavillonsNetwork.node[9].veinsmobility accidentStart 33.5482s
attr unit s
par pavillonsNetwork.node[9].veinsmobility accidentDuration "uniform(30s, 60s)"
attr unit s
par pavillonsNetwork.node[9].veinsmobility accidentInterval "uniform(30s, 60s)"
attr unit s
scalar pavillonsNetwork.node[9].veinsmobility startTime 12
scalar pavillonsNetwork.node[9].veinsmobility totalTime 31
scalar pavillonsNetwork.node[9].veinsmobility stopTime 44
scalar pavillonsNetwork.node[9].veinsmobility minSpeed 0.00059767158164508
scalar pavillonsNetwork.node[9].veinsmobility maxSpeed 11.416901031905
scalar pavillonsNetwork.node[9].veinsmobility totalDistance 155.12678716165
scalar pavillonsNetwork.node[9].veinsmobility totalCO2Emission 84.139964698986
par pavillonsNetwork.node[9] typename "\"org.car2x.veins.nodes.Car\""
par pavillonsNetwork.node[9] applType "\"MyVeinsApp\""
par pavillonsNetwork.node[9] nicType "\"Nic80211p\""
par pavillonsNetwork.node[9] veinsmobilityType "\"org.car2x.veins.modules.mobility.traci.TraCIMobility\""
par pavillonsNetwork.node[5].appl typename "\"org.car2x.veins.modules.application.traci.MyVeinsApp\""
par pavillonsNetwork.node[5].appl headerLength 80bit
attr unit bit
par pavillonsNetwork.node[5].appl sendBeacons false
par pavillonsNetwork.node[5].appl beaconLengthBits 256bit
attr unit bit
par pavillonsNetwork.node[5].appl beaconUserPriority 7
par pavillonsNetwork.node[5].appl beaconInterval 1s
attr unit s
par pavillonsNetwork.node[5].appl dataLengthBits 1024bit
attr unit bit
par pavillonsNetwork.node[5].appl dataOnSch false
par pavillonsNetwork.node[5].appl dataUserPriority 7
par pavillonsNetwork.node[5].appl avoidBeaconSynchronization true
par pavillonsNetwork.node[5].appl sendWSA false
par pavillonsNetwork.node[5].appl wsaLengthBits 250bit
attr unit bit
par pavillonsNetwork.node[5].appl wsaInterval 1s
attr unit s
par pavillonsNetwork.node[5].appl appName "\"My first Veins App!\""
scalar pavillonsNetwork.node[5].appl generatedWSMs 0
scalar pavillonsNetwork.node[5].appl receivedWSMs 0
scalar pavillonsNetwork.node[5].appl generatedBSMs 0
scalar pavillonsNetwork.node[5].appl receivedBSMs 0
scalar pavillonsNetwork.node[5].appl generatedWSAs 0
scalar pavillonsNetwork.node[5].appl receivedWSAs 0
par pavillonsNetwork.node[5].nic.phy80211p typename "\"org.car2x.veins.modules.phy.PhyLayer80211p\""
par pavillonsNetwork.node[5].nic.phy80211p recordStats false
par pavillonsNetwork.node[5].nic.phy80211p usePropagationDelay true
par pavillonsNetwork.node[5].nic.phy80211p noiseFloor -98dBm
attr unit dBm
par pavillonsNetwork.node[5].nic.phy80211p useNoiseFloor true
par pavillonsNetwork.node[5].nic.phy80211p antenna "<Antenna type=\"SampledAntenna1D\" id=\"monopole\">...</Antenna> at /home/simu5g/simu5g-workspace/pavillons//antenna.xml:35"
par pavillonsNetwork.node[5].nic.phy80211p antennaOffsetX 0m
attr unit m
par pavillonsNetwork.node[5].nic.phy80211p antennaOffsetY 0m
attr unit m
par pavillonsNetwork.node[5].nic.phy80211p antennaOffsetZ 1.895m
attr unit m
par pavillonsNetwork.node[5].nic.phy80211p antennaOffsetYaw 0rad
attr unit rad
par pavillonsNetwork.node[5].nic.phy80211p analogueModels "<root>...</root> at /home/simu5g/simu5g-workspace/pavillons//config.xml:34"
par pavillonsNetwork.node[5].nic.phy80211p decider "<root>...</root> at /home/simu5g/simu5g-workspace/pavillons//config.xml:34"
par pavillonsNetwork.node[5].nic.phy80211p minPowerLevel -110dBm
attr unit dBm
par pavillonsNetwork.node[5].nic.phy80211p timeRXToTX 0s
attr unit s
par pavillonsNetwork.node[5].nic.phy80211p timeRXToSleep 0s
attr unit s
par pavillonsNetwork.node[5].nic.phy80211p timeTXToRX 0s
attr unit s
par pavillonsNetwork.node[5].nic.phy80211p timeTXToSleep 0s
attr unit s
par pavillonsNetwork.node[5].nic.phy80211p timeSleepToRX 0s
attr unit s
par pavillonsNetwork.node[5].nic.phy80211p timeSleepToTX 0s
attr unit s
par pavillonsNetwork.node[5].nic.phy80211p initialRadioState 0
par pavillonsNetwork.node[5].nic.phy80211p radioMinAtt 1
par pavillonsNetwork.node[5].nic.phy80211p radioMaxAtt 0
par pavillonsNetwork.node[5].nic.phy80211p nbRadioChannels 1
par pavillonsNetwork.node[5].nic.phy80211p initialRadioChannel 0
par pavillonsNetwork.node[5].nic.phy80211p ccaThreshold -65dBm
attr unit dBm
par pavillonsNetwork.node[5].nic.phy80211p collectCollisionStatistics false
par pavillonsNetwork.node[5].nic.phy80211p allowTxDuringRx false
scalar pavillonsNetwork.node[5].nic.phy80211p busyTime 0
par pavillonsNetwork.node[5].nic.mac1609_4 typename "\"org.car2x.veins.modules.mac.ieee80211p.Mac1609_4\""
par pavillonsNetwork.node[5].nic.mac1609_4 notAffectedByHostState false
par pavillonsNetwork.node[5].nic.mac1609_4 headerLength 0bit
attr unit bit
par pavillonsNetwork.node[5].nic.mac1609_4 address "\"auto\""
par pavillonsNetwork.node[5].nic.mac1609_4 useServiceChannel false
par pavillonsNetwork.node[5].nic.mac1609_4 serviceChannel 1
par pavillonsNetwork.node[5].nic.mac1609_4 bitrate 6000000bps
attr unit bps
par pavillonsNetwork.node[5].nic.mac1609_4 syncOffset 0.0003s
attr unit s
par pavillonsNetwork.node[5].nic.mac1609_4 txPower 20mW
attr unit mW
par pavillonsNetwork.node[5].nic.mac1609_4 queueSize 0
par pavillonsNetwork.node[5].nic.mac1609_4 dot11RTSThreshold 12000bit
attr unit bit
par pavillonsNetwork.node[5].nic.mac1609_4 dot11ShortRetryLimit 7
par pavillonsNetwork.node[5].nic.mac1609_4 dot11LongRetryLimit 4
par pavillonsNetwork.node[5].nic.mac1609_4 ackLength 112bit
attr unit bit
par pavillonsNetwork.node[5].nic.mac1609_4 useAcks false
par pavillonsNetwork.node[5].nic.mac1609_4 frameErrorRate 0
par pavillonsNetwork.node[5].nic.mac1609_4 ackErrorRate 0
scalar pavillonsNetwork.node[5].nic.mac1609_4 ReceivedUnicastPackets 0
scalar pavillonsNetwork.node[5].nic.mac1609_4 ReceivedBroadcasts 0
scalar pavillonsNetwork.node[5].nic.mac1609_4 SentPackets 0
scalar pavillonsNetwork.node[5].nic.mac1609_4 SentAcknowledgements 0
scalar pavillonsNetwork.node[5].nic.mac1609_4 RetriesExceeded 0
scalar pavillonsNetwork.node[5].nic.mac1609_4 SNIRLostPackets 0
scalar pavillonsNetwork.node[5].nic.mac1609_4 RXTXLostPackets 0
scalar pavillonsNetwork.node[5].nic.mac1609_4 TotalLostPackets 0
scalar pavillonsNetwork.node[5].nic.mac1609_4 DroppedPacketsInMac 0
scalar pavillonsNetwork.node[5].nic.mac1609_4 TooLittleTime 0
scalar pavillonsNetwork.node[5].nic.mac1609_4 TimesIntoBackoff 0
scalar pavillonsNetwork.node[5].nic.mac1609_4 SlotsBackoff 0
scalar pavillonsNetwork.node[5].nic.mac1609_4 NumInternalContention 0
scalar pavillonsNetwork.node[5].nic.mac1609_4 totalBusyTime 0
scalar pavillonsNetwork.node[5].nic.mac1609_4 retriesExceeded:count 0
attr recordingmode count
attr source org_car2x_veins_modules_mac_sigRetriesExceeded
scalar pavillonsNetwork.node[5].nic.mac1609_4 sentAcks:count 0
attr recordingmode count
attr source org_car2x_veins_modules_mac_sigSentAck
scalar pavillonsNetwork.node[5].nic.mac1609_4 sentPackets:count 0
attr recordingmode count
attr source org_car2x_veins_modules_mac_sigSentPacket
scalar pavillonsNetwork.node[5].nic.mac1609_4 collisions:count 0
attr recordingmode count
attr source org_car2x_veins_modules_mac_sigCollision
scalar pavillonsNetwork.node[5].nic.mac1609_4 channelBusy:timeavg 0
attr recordingmode timeavg
attr source org_car2x_veins_modules_mac_sigChannelBusy
par pavillonsNetwork.node[5].nic typename "\"org.car2x.veins.modules.nic.Nic80211p\""
par pavillonsNetwork.node[5].nic connectionManagerName "\"connectionManager\""
par pavillonsNetwork.node[5].veinsmobility typename "\"org.car2x.veins.modules.mobility.traci.TraCIMobility\""
par pavillonsNetwork.node[5].veinsmobility notAffectedByHostState true
par pavillonsNetwork.node[5].veinsmobility x 0
par pavillonsNetwork.node[5].veinsmobility y 0
par pavillonsNetwork.node[5].veinsmobility z 0
par pavillonsNetwork.node[5].veinsmobility xOrientation 1
par pavillonsNetwork.node[5].veinsmobility yOrientation 0
par pavillonsNetwork.node[5].veinsmobility zOrientation 0
par pavillonsNetwork.node[5].veinsmobility hostPositionOffset 0m
attr unit m
par pavillonsNetwork.node[5].veinsmobility setHostSpeed false
par pavillonsNetwork.node[5].veinsmobility accidentCount 0
par pavillonsNetwork.node[5].veinsmobility accidentStart 32.1311s
attr unit s
par pavillonsNetwork.node[5].veinsmobility accidentDuration "uniform(30s, 60s)"
attr unit s
par pavillonsNetwork.node[5].veinsmobility accidentInterval "uniform(30s, 60s)"
attr unit s
scalar pavillonsNetwork.node[5].veinsmobility startTime 7
scalar pavillonsNetwork.node[5].veinsmobility totalTime 41
scalar pavillonsNetwork.node[5].veinsmobility stopTime 49
scalar pavillonsNetwork.node[5].veinsmobility minSpeed 0
scalar pavillonsNetwork.node[5].veinsmobility maxSpeed 9.4236224607819
scalar pavillonsNetwork.node[5].veinsmobility totalDistance 63.498004214937
scalar pavillonsNetwork.node[5].veinsmobility totalCO2Emission 63.584875533777
par pavillonsNetwork.node[5] typename "\"org.car2x.veins.nodes.Car\""
par pavillonsNetwork.node[5] applType "\"MyVeinsApp\""
par pavillonsNetwork.node[5] nicType "\"Nic80211p\""
par pavillonsNetwork.node[5] veinsmobilityType "\"org.car2x.veins.modules.mobility.traci.TraCIMobility\""
par pavillonsNetwork.node[2].appl typename "\"org.car2x.veins.modules.application.traci.MyVeinsApp\""
par pavillonsNetwork.node[2].appl headerLength 80bit
attr unit bit
par pavillonsNetwork.node[2].appl sendBeacons false
par pavillonsNetwork.node[2].appl beaconLengthBits 256bit
attr unit bit
par pavillonsNetwork.node[2].appl beaconUserPriority 7
par pavillonsNetwork.node[2].appl beaconInterval 1s
attr unit s
par pavillonsNetwork.node[2].appl dataLengthBits 1024bit
attr unit bit
par pavillonsNetwork.node[2].appl dataOnSch false
par pavillonsNetwork.node[2].appl dataUserPriority 7
par pavillonsNetwork.node[2].appl avoidBeaconSynchronization true
par pavillonsNetwork.node[2].appl sendWSA false
par pavillonsNetwork.node[2].appl wsaLengthBits 250bit
attr unit bit
par pavillonsNetwork.node[2].appl wsaInterval 1s
attr unit s
par pavillonsNetwork.node[2].appl appName "\"My first Veins App!\""
scalar pavillonsNetwork.node[2].appl generatedWSMs 0
scalar pavillonsNetwork.node[2].appl receivedWSMs 0
scalar pavillonsNetwork.node[2].appl generatedBSMs 0
scalar pavillonsNetwork.node[2].appl receivedBSMs 0
scalar pavillonsNetwork.node[2].appl generatedWSAs 0
scalar pavillonsNetwork.node[2].appl receivedWSAs 0
par pavillonsNetwork.node[2].nic.phy80211p typename "\"org.car2x.veins.modules.phy.PhyLayer80211p\""
par pavillonsNetwork.node[2].nic.phy80211p recordStats false
par pavillonsNetwork.node[2].nic.phy80211p usePropagationDelay true
par pavillonsNetwork.node[2].nic.phy80211p noiseFloor -98dBm
attr unit dBm
par pavillonsNetwork.node[2].nic.phy80211p useNoiseFloor true
par pavillonsNetwork.node[2].nic.phy80211p antenna "<Antenna type=\"SampledAntenna1D\" id=\"monopole\">...</Antenna> at /home/simu5g/simu5g-workspace/pavillons//antenna.xml:35"
par pavillonsNetwork.node[2].nic.phy80211p antennaOffsetX 0m
attr unit m
par pavillonsNetwork.node[2].nic.phy80211p antennaOffsetY 0m
attr unit m
par pavillonsNetwork.node[2].nic.phy80211p antennaOffsetZ 1.895m
attr unit m
par pavillonsNetwork.node[2].nic.phy80211p antennaOffsetYaw 0rad
attr unit rad
par pavillonsNetwork.node[2].nic.phy80211p analogueModels "<root>...</root> at /home/simu5g/simu5g-workspace/pavillons//config.xml:34"
par pavillonsNetwork.node[2].nic.phy80211p decider "<root>...</root> at /home/simu5g/simu5g-workspace/pavillons//config.xml:34"
par pavillonsNetwork.node[2].nic.phy80211p minPowerLevel -110dBm
attr unit dBm
par pavillonsNetwork.node[2].nic.phy80211p timeRXToTX 0s
attr unit s
par pavillonsNetwork.node[2].nic.phy80211p timeRXToSleep 0s
attr unit s
par pavillonsNetwork.node[2].nic.phy80211p timeTXToRX 0s
attr unit s
par pavillonsNetwork.node[2].nic.phy80211p timeTXToSleep 0s
attr unit s
par pavillonsNetwork.node[2].nic.phy80211p timeSleepToRX 0s
attr unit s
par pavillonsNetwork.node[2].nic.phy80211p timeSleepToTX 0s
attr unit s
par pavillonsNetwork.node[2].nic.phy80211p initialRadioState 0
par pavillonsNetwork.node[2].nic.phy80211p radioMinAtt 1
par pavillonsNetwork.node[2].nic.phy80211p radioMaxAtt 0
par pavillonsNetwork.node[2].nic.phy80211p nbRadioChannels 1
par pavillonsNetwork.node[2].nic.phy80211p initialRadioChannel 0
par pavillonsNetwork.node[2].nic.phy80211p ccaThreshold -65dBm
attr unit dBm
par pavillonsNetwork.node[2].nic.phy80211p collectCollisionStatistics false
par pavillonsNetwork.node[2].nic.phy80211p allowTxDuringRx false
scalar pavillonsNetwork.node[2].nic.phy80211p busyTime 0
par pavillonsNetwork.node[2].nic.mac1609_4 typename "\"org.car2x.veins.modules.mac.ieee80211p.Mac1609_4\""
par pavillonsNetwork.node[2].nic.mac1609_4 notAffectedByHostState false
par pavillonsNetwork.node[2].nic.mac1609_4 headerLength 0bit
attr unit bit
par pavillonsNetwork.node[2].nic.mac1609_4 address "\"auto\""
par pavillonsNetwork.node[2].nic.mac1609_4 useServiceChannel false
par pavillonsNetwork.node[2].nic.mac1609_4 serviceChannel 1
par pavillonsNetwork.node[2].nic.mac1609_4 bitrate 6000000bps
attr unit bps
par pavillonsNetwork.node[2].nic.mac1609_4 syncOffset 0.0003s
attr unit s
par pavillonsNetwork.node[2].nic.mac1609_4 txPower 20mW
attr unit mW
par pavillonsNetwork.node[2].nic.mac1609_4 queueSize 0
par pavillonsNetwork.node[2].nic.mac1609_4 dot11RTSThreshold 12000bit
attr unit bit
par pavillonsNetwork.node[2].nic.mac1609_4 dot11ShortRetryLimit 7
par pavillonsNetwork.node[2].nic.mac1609_4 dot11LongRetryLimit 4
par pavillonsNetwork.node[2].nic.mac1609_4 ackLength 112bit
attr unit bit
par pavillonsNetwork.node[2].nic.mac1609_4 useAcks false
par pavillonsNetwork.node[2].nic.mac1609_4 frameErrorRate 0
par pavillonsNetwork.node[2].nic.mac1609_4 ackErrorRate 0
scalar pavillonsNetwork.node[2].nic.mac1609_4 ReceivedUnicastPackets 0
scalar pavillonsNetwork.node[2].nic.mac1609_4 ReceivedBroadcasts 0
scalar pavillonsNetwork.node[2].nic.mac1609_4 SentPackets 0
scalar pavillonsNetwork.node[2].nic.mac1609_4 SentAcknowledgements 0
scalar pavillonsNetwork.node[2].nic.mac1609_4 RetriesExceeded 0
scalar pavillonsNetwork.node[2].nic.mac1609_4 SNIRLostPackets 0
scalar pavillonsNetwork.node[2].nic.mac1609_4 RXTXLostPackets 0
scalar pavillonsNetwork.node[2].nic.mac1609_4 TotalLostPackets 0
scalar pavillonsNetwork.node[2].nic.mac1609_4 DroppedPacketsInMac 0
scalar pavillonsNetwork.node[2].nic.mac1609_4 TooLittleTime 0
scalar pavillonsNetwork.node[2].nic.mac1609_4 TimesIntoBackoff 0
scalar pavillonsNetwork.node[2].nic.mac1609_4 SlotsBackoff 0
scalar pavillonsNetwork.node[2].nic.mac1609_4 NumInternalContention 0
scalar pavillonsNetwork.node[2].nic.mac1609_4 totalBusyTime 0
scalar pavillonsNetwork.node[2].nic.mac1609_4 retriesExceeded:count 0
attr recordingmode count
attr source org_car2x_veins_modules_mac_sigRetriesExceeded
scalar pavillonsNetwork.node[2].nic.mac1609_4 sentAcks:count 0
attr recordingmode count
attr source org_car2x_veins_modules_mac_sigSentAck
scalar pavillonsNetwork.node[2].nic.mac1609_4 sentPackets:count 0
attr recordingmode count
attr source org_car2x_veins_modules_mac_sigSentPacket
scalar pavillonsNetwork.node[2].nic.mac1609_4 collisions:count 0
attr recordingmode count
attr source org_car2x_veins_modules_mac_sigCollision
scalar pavillonsNetwork.node[2].nic.mac1609_4 channelBusy:timeavg 0
attr recordingmode timeavg
attr source org_car2x_veins_modules_mac_sigChannelBusy
par pavillonsNetwork.node[2].nic typename "\"org.car2x.veins.modules.nic.Nic80211p\""
par pavillonsNetwork.node[2].nic connectionManagerName "\"connectionManager\""
par pavillonsNetwork.node[2].veinsmobility typename "\"org.car2x.veins.modules.mobility.traci.TraCIMobility\""
par pavillonsNetwork.node[2].veinsmobility notAffectedByHostState true
par pavillonsNetwork.node[2].veinsmobility x 0
par pavillonsNetwork.node[2].veinsmobility y 0
par pavillonsNetwork.node[2].veinsmobility z 0
par pavillonsNetwork.node[2].veinsmobility xOrientation 1
par pavillonsNetwork.node[2].veinsmobility yOrientation 0
par pavillonsNetwork.node[2].veinsmobility zOrientation 0
par pavillonsNetwork.node[2].veinsmobility hostPositionOffset 0m
attr unit m
par pavillonsNetwork.node[2].veinsmobility setHostSpeed false
par pavillonsNetwork.node[2].veinsmobility accidentCount 0
par pavillonsNetwork.node[2].veinsmobility accidentStart 38.926s
attr unit s
par pavillonsNetwork.node[2].veinsmobility accidentDuration "uniform(30s, 60s)"
attr unit s
par pavillonsNetwork.node[2].veinsmobility accidentInterval "uniform(30s, 60s)"
attr unit s
scalar pavillonsNetwork.node[2].veinsmobility startTime 3
scalar pavillonsNetwork.node[2].veinsmobility totalTime 46
scalar pavillonsNetwork.node[2].veinsmobility stopTime 50
scalar pavillonsNetwork.node[2].veinsmobility minSpeed 0
scalar pavillonsNetwork.node[2].veinsmobility maxSpeed 11.990620523901
scalar pavillonsNetwork.node[2].veinsmobility totalDistance 197.36258131186
scalar pavillonsNetwork.node[2].veinsmobility totalCO2Emission 108.34724794404
par pavillonsNetwork.node[2] typename "\"org.car2x.veins.nodes.Car\""
par pavillonsNetwork.node[2] applType "\"MyVeinsApp\""
par pavillonsNetwork.node[2] nicType "\"Nic80211p\""
par pavillonsNetwork.node[2] veinsmobilityType "\"org.car2x.veins.modules.mobility.traci.TraCIMobility\""
par pavillonsNetwork.node[15].appl typename "\"org.car2x.veins.modules.application.traci.MyVeinsApp\""
par pavillonsNetwork.node[15].appl headerLength 80bit
attr unit bit
par pavillonsNetwork.node[15].appl sendBeacons false
par pavillonsNetwork.node[15].appl beaconLengthBits 256bit
attr unit bit
par pavillonsNetwork.node[15].appl beaconUserPriority 7
par pavillonsNetwork.node[15].appl beaconInterval 1s
attr unit s
par pavillonsNetwork.node[15].appl dataLengthBits 1024bit
attr unit bit
par pavillonsNetwork.node[15].appl dataOnSch false
par pavillonsNetwork.node[15].appl dataUserPriority 7
par pavillonsNetwork.node[15].appl avoidBeaconSynchronization true
par pavillonsNetwork.node[15].appl sendWSA false
par pavillonsNetwork.node[15].appl wsaLengthBits 250bit
attr unit bit
par pavillonsNetwork.node[15].appl wsaInterval 1s
attr unit s
par pavillonsNetwork.node[15].appl appName "\"My first Veins App!\""
scalar pavillonsNetwork.node[15].appl generatedWSMs 0
scalar pavillonsNetwork.node[15].appl receivedWSMs 0
scalar pavillonsNetwork.node[15].appl generatedBSMs 0
scalar pavillonsNetwork.node[15].appl receivedBSMs 0
scalar pavillonsNetwork.node[15].appl generatedWSAs 0
scalar pavillonsNetwork.node[15].appl receivedWSAs 0
par pavillonsNetwork.node[15].nic.phy80211p typename "\"org.car2x.veins.modules.phy.PhyLayer80211p\""
par pavillonsNetwork.node[15].nic.phy80211p recordStats false
par pavillonsNetwork.node[15].nic.phy80211p usePropagationDelay true
par pavillonsNetwork.node[15].nic.phy80211p noiseFloor -98dBm
attr unit dBm
par pavillonsNetwork.node[15].nic.phy80211p useNoiseFloor true
par pavillonsNetwork.node[15].nic.phy80211p antenna "<Antenna type=\"SampledAntenna1D\" id=\"monopole\">...</Antenna> at /home/simu5g/simu5g-workspace/pavillons//antenna.xml:35"
par pavillonsNetwork.node[15].nic.phy80211p antennaOffsetX 0m
attr unit m
par pavillonsNetwork.node[15].nic.phy80211p antennaOffsetY 0m
attr unit m
par pavillonsNetwork.node[15].nic.phy80211p antennaOffsetZ 1.895m
attr unit m
par pavillonsNetwork.node[15].nic.phy80211p antennaOffsetYaw 0rad
attr unit rad
par pavillonsNetwork.node[15].nic.phy80211p analogueModels "<root>...</root> at /home/simu5g/simu5g-workspace/pavillons//config.xml:34"
par pavillonsNetwork.node[15].nic.phy80211p decider "<root>...</root> at /home/simu5g/simu5g-workspace/pavillons//config.xml:34"
par pavillonsNetwork.node[15].nic.phy80211p minPowerLevel -110dBm
attr unit dBm
par pavillonsNetwork.node[15].nic.phy80211p timeRXToTX 0s
attr unit s
par pavillonsNetwork.node[15].nic.phy80211p timeRXToSleep 0s
attr unit s
par pavillonsNetwork.node[15].nic.phy80211p timeTXToRX 0s
attr unit s
par pavillonsNetwork.node[15].nic.phy80211p timeTXToSleep 0s
attr unit s
par pavillonsNetwork.node[15].nic.phy80211p timeSleepToRX 0s
attr unit s
par pavillonsNetwork.node[15].nic.phy80211p timeSleepToTX 0s
attr unit s
par pavillonsNetwork.node[15].nic.phy80211p initialRadioState 0
par pavillonsNetwork.node[15].nic.phy80211p radioMinAtt 1
par pavillonsNetwork.node[15].nic.phy80211p radioMaxAtt 0
par pavillonsNetwork.node[15].nic.phy80211p nbRadioChannels 1
par pavillonsNetwork.node[15].nic.phy80211p initialRadioChannel 0
par pavillonsNetwork.node[15].nic.phy80211p ccaThreshold -65dBm
attr unit dBm
par pavillonsNetwork.node[15].nic.phy80211p collectCollisionStatistics false
par pavillonsNetwork.node[15].nic.phy80211p allowTxDuringRx false
scalar pavillonsNetwork.node[15].nic.phy80211p busyTime 0
par pavillonsNetwork.node[15].nic.mac1609_4 typename "\"org.car2x.veins.modules.mac.ieee80211p.Mac1609_4\""
par pavillonsNetwork.node[15].nic.mac1609_4 notAffectedByHostState false
par pavillonsNetwork.node[15].nic.mac1609_4 headerLength 0bit
attr unit bit
par pavillonsNetwork.node[15].nic.mac1609_4 address "\"auto\""
par pavillonsNetwork.node[15].nic.mac1609_4 useServiceChannel false
par pavillonsNetwork.node[15].nic.mac1609_4 serviceChannel 1
par pavillonsNetwork.node[15].nic.mac1609_4 bitrate 6000000bps
attr unit bps
par pavillonsNetwork.node[15].nic.mac1609_4 syncOffset 0.0003s
attr unit s
par pavillonsNetwork.node[15].nic.mac1609_4 txPower 20mW
attr unit mW
par pavillonsNetwork.node[15].nic.mac1609_4 queueSize 0
par pavillonsNetwork.node[15].nic.mac1609_4 dot11RTSThreshold 12000bit
attr unit bit
par pavillonsNetwork.node[15].nic.mac1609_4 dot11ShortRetryLimit 7
par pavillonsNetwork.node[15].nic.mac1609_4 dot11LongRetryLimit 4
par pavillonsNetwork.node[15].nic.mac1609_4 ackLength 112bit
attr unit bit
par pavillonsNetwork.node[15].nic.mac1609_4 useAcks false
par pavillonsNetwork.node[15].nic.mac1609_4 frameErrorRate 0
par pavillonsNetwork.node[15].nic.mac1609_4 ackErrorRate 0
scalar pavillonsNetwork.node[15].nic.mac1609_4 ReceivedUnicastPackets 0
scalar pavillonsNetwork.node[15].nic.mac1609_4 ReceivedBroadcasts 0
scalar pavillonsNetwork.node[15].nic.mac1609_4 SentPackets 0
scalar pavillonsNetwork.node[15].nic.mac1609_4 SentAcknowledgements 0
scalar pavillonsNetwork.node[15].nic.mac1609_4 RetriesExceeded 0
scalar pavillonsNetwork.node[15].nic.mac1609_4 SNIRLostPackets 0
scalar pavillonsNetwork.node[15].nic.mac1609_4 RXTXLostPackets 0
scalar pavillonsNetwork.node[15].nic.mac1609_4 TotalLostPackets 0
scalar pavillonsNetwork.node[15].nic.mac1609_4 DroppedPacketsInMac 0
scalar pavillonsNetwork.node[15].nic.mac1609_4 TooLittleTime 0
scalar pavillonsNetwork.node[15].nic.mac1609_4 TimesIntoBackoff 0
scalar pavillonsNetwork.node[15].nic.mac1609_4 SlotsBackoff 0
scalar pavillonsNetwork.node[15].nic.mac1609_4 NumInternalContention 0
scalar pavillonsNetwork.node[15].nic.mac1609_4 totalBusyTime 0
scalar pavillonsNetwork.node[15].nic.mac1609_4 retriesExceeded:count 0
attr recordingmode count
attr source org_car2x_veins_modules_mac_sigRetriesExceeded
scalar pavillonsNetwork.node[15].nic.mac1609_4 sentAcks:count 0
attr recordingmode count
attr source org_car2x_veins_modules_mac_sigSentAck
scalar pavillonsNetwork.node[15].nic.mac1609_4 sentPackets:count 0
attr recordingmode count
attr source org_car2x_veins_modules_mac_sigSentPacket
scalar pavillonsNetwork.node[15].nic.mac1609_4 collisions:count 0
attr recordingmode count
attr source org_car2x_veins_modules_mac_sigCollision
scalar pavillonsNetwork.node[15].nic.mac1609_4 channelBusy:timeavg 0
attr recordingmode timeavg
attr source org_car2x_veins_modules_mac_sigChannelBusy
par pavillonsNetwork.node[15].nic typename "\"org.car2x.veins.modules.nic.Nic80211p\""
par pavillonsNetwork.node[15].nic connectionManagerName "\"connectionManager\""
par pavillonsNetwork.node[15].veinsmobility typename "\"org.car2x.veins.modules.mobility.traci.TraCIMobility\""
par pavillonsNetwork.node[15].veinsmobility notAffectedByHostState true
par pavillonsNetwork.node[15].veinsmobility x 0
par pavillonsNetwork.node[15].veinsmobility y 0
par pavillonsNetwork.node[15].veinsmobility z 0
par pavillonsNetwork.node[15].veinsmobility xOrientation 1
par pavillonsNetwork.node[15].veinsmobility yOrientation 0
par pavillonsNetwork.node[15].veinsmobility zOrientation 0
par pavillonsNetwork.node[15].veinsmobility hostPositionOffset 0m
attr unit m
par pavillonsNetwork.node[15].veinsmobility setHostSpeed false
par pavillonsNetwork.node[15].veinsmobility accidentCount 0
par pavillonsNetwork.node[15].veinsmobility accidentStart 57.078s
attr unit s
par pavillonsNetwork.node[15].veinsmobility accidentDuration "uniform(30s, 60s)"
attr unit s
par pavillonsNetwork.node[15].veinsmobility accidentInterval "uniform(30s, 60s)"
attr unit s
scalar pavillonsNetwork.node[15].veinsmobility startTime 17
scalar pavillonsNetwork.node[15].veinsmobility totalTime 32
scalar pavillonsNetwork.node[15].veinsmobility stopTime 50
scalar pavillonsNetwork.node[15].veinsmobility minSpeed 0.012843215702953
scalar pavillonsNetwork.node[15].veinsmobility maxSpeed 14.191566545756
scalar pavillonsNetwork.node[15].veinsmobility totalDistance 203.88042424202
scalar pavillonsNetwork.node[15].veinsmobility totalCO2Emission 93.999065725437
par pavillonsNetwork.node[15] typename "\"org.car2x.veins.nodes.Car\""
par pavillonsNetwork.node[15] applType "\"MyVeinsApp\""
par pavillonsNetwork.node[15] nicType "\"Nic80211p\""
par pavillonsNetwork.node[15] veinsmobilityType "\"org.car2x.veins.modules.mobility.traci.TraCIMobility\""
par pavillonsNetwork.node[18].appl typename "\"org.car2x.veins.modules.application.traci.MyVeinsApp\""
par pavillonsNetwork.node[18].appl headerLength 80bit
attr unit bit
par pavillonsNetwork.node[18].appl sendBeacons false
par pavillonsNetwork.node[18].appl beaconLengthBits 256bit
attr unit bit
par pavillonsNetwork.node[18].appl beaconUserPriority 7
par pavillonsNetwork.node[18].appl beaconInterval 1s
attr unit s
par pavillonsNetwork.node[18].appl dataLengthBits 1024bit
attr unit bit
par pavillonsNetwork.node[18].appl dataOnSch false
par pavillonsNetwork.node[18].appl dataUserPriority 7
par pavillonsNetwork.node[18].appl avoidBeaconSynchronization true
par pavillonsNetwork.node[18].appl sendWSA false
par pavillonsNetwork.node[18].appl wsaLengthBits 250bit
attr unit bit
par pavillonsNetwork.node[18].appl wsaInterval 1s
attr unit s
par pavillonsNetwork.node[18].appl appName "\"My first Veins App!\""
scalar pavillonsNetwork.node[18].appl generatedWSMs 0
scalar pavillonsNetwork.node[18].appl receivedWSMs 0
scalar pavillonsNetwork.node[18].appl generatedBSMs 0
scalar pavillonsNetwork.node[18].appl receivedBSMs 0
scalar pavillonsNetwork.node[18].appl generatedWSAs 0
scalar pavillonsNetwork.node[18].appl receivedWSAs 0
par pavillonsNetwork.node[18].nic.phy80211p typename "\"org.car2x.veins.modules.phy.PhyLayer80211p\""
par pavillonsNetwork.node[18].nic.phy80211p recordStats false
par pavillonsNetwork.node[18].nic.phy80211p usePropagationDelay true
par pavillonsNetwork.node[18].nic.phy80211p noiseFloor -98dBm
attr unit dBm
par pavillonsNetwork.node[18].nic.phy80211p useNoiseFloor true
par pavillonsNetwork.node[18].nic.phy80211p antenna "<Antenna type=\"SampledAntenna1D\" id=\"monopole\">...</Antenna> at /home/simu5g/simu5g-workspace/pavillons//antenna.xml:35"
par pavillonsNetwork.node[18].nic.phy80211p antennaOffsetX 0m
attr unit m
par pavillonsNetwork.node[18].nic.phy80211p antennaOffsetY 0m
attr unit m
par pavillonsNetwork.node[18].nic.phy80211p antennaOffsetZ 1.895m
attr unit m
par pavillonsNetwork.node[18].nic.phy80211p antennaOffsetYaw 0rad
attr unit rad
par pavillonsNetwork.node[18].nic.phy80211p analogueModels "<root>...</root> at /home/simu5g/simu5g-workspace/pavillons//config.xml:34"
par pavillonsNetwork.node[18].nic.phy80211p decider "<root>...</root> at /home/simu5g/simu5g-workspace/pavillons//config.xml:34"
par pavillonsNetwork.node[18].nic.phy80211p minPowerLevel -110dBm
attr unit dBm
par pavillonsNetwork.node[18].nic.phy80211p timeRXToTX 0s
attr unit s
par pavillonsNetwork.node[18].nic.phy80211p timeRXToSleep 0s
attr unit s
par pavillonsNetwork.node[18].nic.phy80211p timeTXToRX 0s
attr unit s
par pavillonsNetwork.node[18].nic.phy80211p timeTXToSleep 0s
attr unit s
par pavillonsNetwork.node[18].nic.phy80211p timeSleepToRX 0s
attr unit s
par pavillonsNetwork.node[18].nic.phy80211p timeSleepToTX 0s
attr unit s
par pavillonsNetwork.node[18].nic.phy80211p initialRadioState 0
par pavillonsNetwork.node[18].nic.phy80211p radioMinAtt 1
par pavillonsNetwork.node[18].nic.phy80211p radioMaxAtt 0
par pavillonsNetwork.node[18].nic.phy80211p nbRadioChannels 1
par pavillonsNetwork.node[18].nic.phy80211p initialRadioChannel 0
par pavillonsNetwork.node[18].nic.phy80211p ccaThreshold -65dBm
attr unit dBm
par pavillonsNetwork.node[18].nic.phy80211p collectCollisionStatistics false
par pavillonsNetwork.node[18].nic.phy80211p allowTxDuringRx false
scalar pavillonsNetwork.node[18].nic.phy80211p busyTime 0
par pavillonsNetwork.node[18].nic.mac1609_4 typename "\"org.car2x.veins.modules.mac.ieee80211p.Mac1609_4\""
par pavillonsNetwork.node[18].nic.mac1609_4 notAffectedByHostState false
par pavillonsNetwork.node[18].nic.mac1609_4 headerLength 0bit
attr unit bit
par pavillonsNetwork.node[18].nic.mac1609_4 address "\"auto\""
par pavillonsNetwork.node[18].nic.mac1609_4 useServiceChannel false
par pavillonsNetwork.node[18].nic.mac1609_4 serviceChannel 1
par pavillonsNetwork.node[18].nic.mac1609_4 bitrate 6000000bps
attr unit bps
par pavillonsNetwork.node[18].nic.mac1609_4 syncOffset 0.0003s
attr unit s
par pavillonsNetwork.node[18].nic.mac1609_4 txPower 20mW
attr unit mW
par pavillonsNetwork.node[18].nic.mac1609_4 queueSize 0
par pavillonsNetwork.node[18].nic.mac1609_4 dot11RTSThreshold 12000bit
attr unit bit
par pavillonsNetwork.node[18].nic.mac1609_4 dot11ShortRetryLimit 7
par pavillonsNetwork.node[18].nic.mac1609_4 dot11LongRetryLimit 4
par pavillonsNetwork.node[18].nic.mac1609_4 ackLength 112bit
attr unit bit
par pavillonsNetwork.node[18].nic.mac1609_4 useAcks false
par pavillonsNetwork.node[18].nic.mac1609_4 frameErrorRate 0
par pavillonsNetwork.node[18].nic.mac1609_4 ackErrorRate 0
scalar pavillonsNetwork.node[18].nic.mac1609_4 ReceivedUnicastPackets 0
scalar pavillonsNetwork.node[18].nic.mac1609_4 ReceivedBroadcasts 0
scalar pavillonsNetwork.node[18].nic.mac1609_4 SentPackets 0
scalar pavillonsNetwork.node[18].nic.mac1609_4 SentAcknowledgements 0
scalar pavillonsNetwork.node[18].nic.mac1609_4 RetriesExceeded 0
scalar pavillonsNetwork.node[18].nic.mac1609_4 SNIRLostPackets 0
scalar pavillonsNetwork.node[18].nic.mac1609_4 RXTXLostPackets 0
scalar pavillonsNetwork.node[18].nic.mac1609_4 TotalLostPackets 0
scalar pavillonsNetwork.node[18].nic.mac1609_4 DroppedPacketsInMac 0
scalar pavillonsNetwork.node[18].nic.mac1609_4 TooLittleTime 0
scalar pavillonsNetwork.node[18].nic.mac1609_4 TimesIntoBackoff 0
scalar pavillonsNetwork.node[18].nic.mac1609_4 SlotsBackoff 0
scalar pavillonsNetwork.node[18].nic.mac1609_4 NumInternalContention 0
scalar pavillonsNetwork.node[18].nic.mac1609_4 totalBusyTime 0
scalar pavillonsNetwork.node[18].nic.mac1609_4 retriesExceeded:count 0
attr recordingmode count
attr source org_car2x_veins_modules_mac_sigRetriesExceeded
scalar pavillonsNetwork.node[18].nic.mac1609_4 sentAcks:count 0
attr recordingmode count
attr source org_car2x_veins_modules_mac_sigSentAck
scalar pavillonsNetwork.node[18].nic.mac1609_4 sentPackets:count 0
attr recordingmode count
attr source org_car2x_veins_modules_mac_sigSentPacket
scalar pavillonsNetwork.node[18].nic.mac1609_4 collisions:count 0
attr recordingmode count
attr source org_car2x_veins_modules_mac_sigCollision
scalar pavillonsNetwork.node[18].nic.mac1609_4 channelBusy:timeavg 0
attr recordingmode timeavg
attr source org_car2x_veins_modules_mac_sigChannelBusy
par pavillonsNetwork.node[18].nic typename "\"org.car2x.veins.modules.nic.Nic80211p\""
par pavillonsNetwork.node[18].nic connectionManagerName "\"connectionManager\""
par pavillonsNetwork.node[18].veinsmobility typename "\"org.car2x.veins.modules.mobility.traci.TraCIMobility\""
par pavillonsNetwork.node[18].veinsmobility notAffectedByHostState true
par pavillonsNetwork.node[18].veinsmobility x 0
par pavillonsNetwork.node[18].veinsmobility y 0
par pavillonsNetwork.node[18].veinsmobility z 0
par pavillonsNetwork.node[18].veinsmobility xOrientation 1
par pavillonsNetwork.node[18].veinsmobility yOrientation 0
par pavillonsNetwork.node[18].veinsmobility zOrientation 0
par pavillonsNetwork.node[18].veinsmobility hostPositionOffset 0m
attr unit m
par pavillonsNetwork.node[18].veinsmobility setHostSpeed false
par pavillonsNetwork.node[18].veinsmobility accidentCount 0
par pavillonsNetwork.node[18].veinsmobility accidentStart 36.3115s
attr unit s
par pavillonsNetwork.node[18].veinsmobility accidentDuration "uniform(30s, 60s)"
attr unit s
par pavillonsNetwork.node[18].veinsmobility accidentInterval "uniform(30s, 60s)"
attr unit s
scalar pavillonsNetwork.node[18].veinsmobility startTime 20
scalar pavillonsNetwork.node[18].veinsmobility totalTime 31
scalar pavillonsNetwork.node[18].veinsmobility stopTime 52
scalar pavillonsNetwork.node[18].veinsmobility minSpeed 2.2044131760718
scalar pavillonsNetwork.node[18].veinsmobility maxSpeed 15.450975339105
scalar pavillonsNetwork.node[18].veinsmobility totalDistance 289.71438737534
scalar pavillonsNetwork.node[18].veinsmobility totalCO2Emission 106.06876734304
par pavillonsNetwork.node[18] typename "\"org.car2x.veins.nodes.Car\""
par pavillonsNetwork.node[18] applType "\"MyVeinsApp\""
par pavillonsNetwork.node[18] nicType "\"Nic80211p\""
par pavillonsNetwork.node[18] veinsmobilityType "\"org.car2x.veins.modules.mobility.traci.TraCIMobility\""
par pavillonsNetwork.node[4].appl typename "\"org.car2x.veins.modules.application.traci.MyVeinsApp\""
par pavillonsNetwork.node[4].appl headerLength 80bit
attr unit bit
par pavillonsNetwork.node[4].appl sendBeacons false
par pavillonsNetwork.node[4].appl beaconLengthBits 256bit
attr unit bit
par pavillonsNetwork.node[4].appl beaconUserPriority 7
par pavillonsNetwork.node[4].appl beaconInterval 1s
attr unit s
par pavillonsNetwork.node[4].appl dataLengthBits 1024bit
attr unit bit
par pavillonsNetwork.node[4].appl dataOnSch false
par pavillonsNetwork.node[4].appl dataUserPriority 7
par pavillonsNetwork.node[4].appl avoidBeaconSynchronization true
par pavillonsNetwork.node[4].appl sendWSA false
par pavillonsNetwork.node[4].appl wsaLengthBits 250bit
attr unit bit
par pavillonsNetwork.node[4].appl wsaInterval 1s
attr unit s
par pavillonsNetwork.node[4].appl appName "\"My first Veins App!\""
scalar pavillonsNetwork.node[4].appl generatedWSMs 0
scalar pavillonsNetwork.node[4].appl receivedWSMs 0
scalar pavillonsNetwork.node[4].appl generatedBSMs 0
scalar pavillonsNetwork.node[4].appl receivedBSMs 0
scalar pavillonsNetwork.node[4].appl generatedWSAs 0
scalar pavillonsNetwork.node[4].appl receivedWSAs 0
par pavillonsNetwork.node[4].nic.phy80211p typename "\"org.car2x.veins.modules.phy.PhyLayer80211p\""
par pavillonsNetwork.node[4].nic.phy80211p recordStats false
par pavillonsNetwork.node[4].nic.phy80211p usePropagationDelay true
par pavillonsNetwork.node[4].nic.phy80211p noiseFloor -98dBm
attr unit dBm
par pavillonsNetwork.node[4].nic.phy80211p useNoiseFloor true
par pavillonsNetwork.node[4].nic.phy80211p antenna "<Antenna type=\"SampledAntenna1D\" id=\"monopole\">...</Antenna> at /home/simu5g/simu5g-workspace/pavillons//antenna.xml:35"
par pavillonsNetwork.node[4].nic.phy80211p antennaOffsetX 0m
attr unit m
par pavillonsNetwork.node[4].nic.phy80211p antennaOffsetY 0m
attr unit m
par pavillonsNetwork.node[4].nic.phy80211p antennaOffsetZ 1.895m
attr unit m
par pavillonsNetwork.node[4].nic.phy80211p antennaOffsetYaw 0rad
attr unit rad
par pavillonsNetwork.node[4].nic.phy80211p analogueModels "<root>...</root> at /home/simu5g/simu5g-workspace/pavillons//config.xml:34"
par pavillonsNetwork.node[4].nic.phy80211p decider "<root>...</root> at /home/simu5g/simu5g-workspace/pavillons//config.xml:34"
par pavillonsNetwork.node[4].nic.phy80211p minPowerLevel -110dBm
attr unit dBm
par pavillonsNetwork.node[4].nic.phy80211p timeRXToTX 0s
attr unit s
par pavillonsNetwork.node[4].nic.phy80211p timeRXToSleep 0s
attr unit s
par pavillonsNetwork.node[4].nic.phy80211p timeTXToRX 0s
attr unit s
par pavillonsNetwork.node[4].nic.phy80211p timeTXToSleep 0s
attr unit s
par pavillonsNetwork.node[4].nic.phy80211p timeSleepToRX 0s
attr unit s
par pavillonsNetwork.node[4].nic.phy80211p timeSleepToTX 0s
attr unit s
par pavillonsNetwork.node[4].nic.phy80211p initialRadioState 0
par pavillonsNetwork.node[4].nic.phy80211p radioMinAtt 1
par pavillonsNetwork.node[4].nic.phy80211p radioMaxAtt 0
par pavillonsNetwork.node[4].nic.phy80211p nbRadioChannels 1
par pavillonsNetwork.node[4].nic.phy80211p initialRadioChannel 0
par pavillonsNetwork.node[4].nic.phy80211p ccaThreshold -65dBm
attr unit dBm
par pavillonsNetwork.node[4].nic.phy80211p collectCollisionStatistics false
par pavillonsNetwork.node[4].nic.phy80211p allowTxDuringRx false
scalar pavillonsNetwork.node[4].nic.phy80211p busyTime 0
par pavillonsNetwork.node[4].nic.mac1609_4 typename "\"org.car2x.veins.modules.mac.ieee80211p.Mac1609_4\""
par pavillonsNetwork.node[4].nic.mac1609_4 notAffectedByHostState false
par pavillonsNetwork.node[4].nic.mac1609_4 headerLength 0bit
attr unit bit
par pavillonsNetwork.node[4].nic.mac1609_4 address "\"auto\""
par pavillonsNetwork.node[4].nic.mac1609_4 useServiceChannel false
par pavillonsNetwork.node[4].nic.mac1609_4 serviceChannel 1
par pavillonsNetwork.node[4].nic.mac1609_4 bitrate 6000000bps
attr unit bps
par pavillonsNetwork.node[4].nic.mac1609_4 syncOffset 0.0003s
attr unit s
par pavillonsNetwork.node[4].nic.mac1609_4 txPower 20mW
attr unit mW
par pavillonsNetwork.node[4].nic.mac1609_4 queueSize 0
par pavillonsNetwork.node[4].nic.mac1609_4 dot11RTSThreshold 12000bit
attr unit bit
par pavillonsNetwork.node[4].nic.mac1609_4 dot11ShortRetryLimit 7
par pavillonsNetwork.node[4].nic.mac1609_4 dot11LongRetryLimit 4
par pavillonsNetwork.node[4].nic.mac1609_4 ackLength 112bit
attr unit bit
par pavillonsNetwork.node[4].nic.mac1609_4 useAcks false
par pavillonsNetwork.node[4].nic.mac1609_4 frameErrorRate 0
par pavillonsNetwork.node[4].nic.mac1609_4 ackErrorRate 0
scalar pavillonsNetwork.node[4].nic.mac1609_4 ReceivedUnicastPackets 0
scalar pavillonsNetwork.node[4].nic.mac1609_4 ReceivedBroadcasts 0
scalar pavillonsNetwork.node[4].nic.mac1609_4 SentPackets 0
scalar pavillonsNetwork.node[4].nic.mac1609_4 SentAcknowledgements 0
scalar pavillonsNetwork.node[4].nic.mac1609_4 RetriesExceeded 0
scalar pavillonsNetwork.node[4].nic.mac1609_4 SNIRLostPackets 0
scalar pavillonsNetwork.node[4].nic.mac1609_4 RXTXLostPackets 0
scalar pavillonsNetwork.node[4].nic.mac1609_4 TotalLostPackets 0
scalar pavillonsNetwork.node[4].nic.mac1609_4 DroppedPacketsInMac 0
scalar pavillonsNetwork.node[4].nic.mac1609_4 TooLittleTime 0
scalar pavillonsNetwork.node[4].nic.mac1609_4 TimesIntoBackoff 0
scalar pavillonsNetwork.node[4].nic.mac1609_4 SlotsBackoff 0
scalar pavillonsNetwork.node[4].nic.mac1609_4 NumInternalContention 0
scalar pavillonsNetwork.node[4].nic.mac1609_4 totalBusyTime 0
scalar pavillonsNetwork.node[4].nic.mac1609_4 retriesExceeded:count 0
attr recordingmode count
attr source org_car2x_veins_modules_mac_sigRetriesExceeded
scalar pavillonsNetwork.node[4].nic.mac1609_4 sentAcks:count 0
attr recordingmode count
attr source org_car2x_veins_modules_mac_sigSentAck
scalar pavillonsNetwork.node[4].nic.mac1609_4 sentPackets:count 0
attr recordingmode count
attr source org_car2x_veins_modules_mac_sigSentPacket
scalar pavillonsNetwork.node[4].nic.mac1609_4 collisions:count 0
attr recordingmode count
attr source org_car2x_veins_modules_mac_sigCollision
scalar pavillonsNetwork.node[4].nic.mac1609_4 channelBusy:timeavg 0
attr recordingmode timeavg
attr source org_car2x_veins_modules_mac_sigChannelBusy
par pavillonsNetwork.node[4].nic typename "\"org.car2x.veins.modules.nic.Nic80211p\""
par pavillonsNetwork.node[4].nic connectionManagerName "\"connectionManager\""
par pavillonsNetwork.node[4].veinsmobility typename "\"org.car2x.veins.modules.mobility.traci.TraCIMobility\""
par pavillonsNetwork.node[4].veinsmobility notAffectedByHostState true
par pavillonsNetwork.node[4].veinsmobility x 0
par pavillonsNetwork.node[4].veinsmobility y 0
par pavillonsNetwork.node[4].veinsmobility z 0
par pavillonsNetwork.node[4].veinsmobility xOrientation 1
par pavillonsNetwork.node[4].veinsmobility yOrientation 0
par pavillonsNetwork.node[4].veinsmobility zOrientation 0
par pavillonsNetwork.node[4].veinsmobility hostPositionOffset 0m
attr unit m
par pavillonsNetwork.node[4].veinsmobility setHostSpeed false
par pavillonsNetwork.node[4].veinsmobility accidentCount 0
par pavillonsNetwork.node[4].veinsmobility accidentStart 44.3993s
attr unit s
par pavillonsNetwork.node[4].veinsmobility accidentDuration "uniform(30s, 60s)"
attr unit s
par pavillonsNetwork.node[4].veinsmobility accidentInterval "uniform(30s, 60s)"
attr unit s
scalar pavillonsNetwork.node[4].veinsmobility startTime 5
scalar pavillonsNetwork.node[4].veinsmobility totalTime 50
scalar pavillonsNetwork.node[4].veinsmobility stopTime 56
scalar pavillonsNetwork.node[4].veinsmobility minSpeed 0.0023517817053315
scalar pavillonsNetwork.node[4].veinsmobility maxSpeed 16.748783544526
scalar pavillonsNetwork.node[4].veinsmobility totalDistance 376.00714504538
scalar pavillonsNetwork.node[4].veinsmobility totalCO2Emission 159.46357596825
par pavillonsNetwork.node[4] typename "\"org.car2x.veins.nodes.Car\""
par pavillonsNetwork.node[4] applType "\"MyVeinsApp\""
par pavillonsNetwork.node[4] nicType "\"Nic80211p\""
par pavillonsNetwork.node[4] veinsmobilityType "\"org.car2x.veins.modules.mobility.traci.TraCIMobility\""
par pavillonsNetwork.node[0].appl typename "\"org.car2x.veins.modules.application.traci.MyVeinsApp\""
par pavillonsNetwork.node[0].appl headerLength 80bit
attr unit bit
par pavillonsNetwork.node[0].appl sendBeacons false
par pavillonsNetwork.node[0].appl beaconLengthBits 256bit
attr unit bit
par pavillonsNetwork.node[0].appl beaconUserPriority 7
par pavillonsNetwork.node[0].appl beaconInterval 1s
attr unit s
par pavillonsNetwork.node[0].appl dataLengthBits 1024bit
attr unit bit
par pavillonsNetwork.node[0].appl dataOnSch false
par pavillonsNetwork.node[0].appl dataUserPriority 7
par pavillonsNetwork.node[0].appl avoidBeaconSynchronization true
par pavillonsNetwork.node[0].appl sendWSA false
par pavillonsNetwork.node[0].appl wsaLengthBits 250bit
attr unit bit
par pavillonsNetwork.node[0].appl wsaInterval 1s
attr unit s
par pavillonsNetwork.node[0].appl appName "\"My first Veins App!\""
scalar pavillonsNetwork.node[0].appl generatedWSMs 0
scalar pavillonsNetwork.node[0].appl receivedWSMs 0
scalar pavillonsNetwork.node[0].appl generatedBSMs 0
scalar pavillonsNetwork.node[0].appl receivedBSMs 0
scalar pavillonsNetwork.node[0].appl generatedWSAs 0
scalar pavillonsNetwork.node[0].appl receivedWSAs 0
par pavillonsNetwork.node[0].nic.phy80211p typename "\"org.car2x.veins.modules.phy.PhyLayer80211p\""
par pavillonsNetwork.node[0].nic.phy80211p recordStats false
par pavillonsNetwork.node[0].nic.phy80211p usePropagationDelay true
par pavillonsNetwork.node[0].nic.phy80211p noiseFloor -98dBm
attr unit dBm
par pavillonsNetwork.node[0].nic.phy80211p useNoiseFloor true
par pavillonsNetwork.node[0].nic.phy80211p antenna "<Antenna type=\"SampledAntenna1D\" id=\"monopole\">...</Antenna> at /home/simu5g/simu5g-workspace/pavillons//antenna.xml:35"
par pavillonsNetwork.node[0].nic.phy80211p antennaOffsetX 0m
attr unit m
par pavillonsNetwork.node[0].nic.phy80211p antennaOffsetY 0m
attr unit m
par pavillonsNetwork.node[0].nic.phy80211p antennaOffsetZ 1.895m
attr unit m
par pavillonsNetwork.node[0].nic.phy80211p antennaOffsetYaw 0rad
attr unit rad
par pavillonsNetwork.node[0].nic.phy80211p analogueModels "<root>...</root> at /home/simu5g/simu5g-workspace/pavillons//config.xml:34"
par pavillonsNetwork.node[0].nic.phy80211p decider "<root>...</root> at /home/simu5g/simu5g-workspace/pavillons//config.xml:34"
par pavillonsNetwork.node[0].nic.phy80211p minPowerLevel -110dBm
attr unit dBm
par pavillonsNetwork.node[0].nic.phy80211p timeRXToTX 0s
attr unit s
par pavillonsNetwork.node[0].nic.phy80211p timeRXToSleep 0s
attr unit s
par pavillonsNetwork.node[0].nic.phy80211p timeTXToRX 0s
attr unit s
par pavillonsNetwork.node[0].nic.phy80211p timeTXToSleep 0s
attr unit s
par pavillonsNetwork.node[0].nic.phy80211p timeSleepToRX 0s
attr unit s
par pavillonsNetwork.node[0].nic.phy80211p timeSleepToTX 0s
attr unit s
par pavillonsNetwork.node[0].nic.phy80211p initialRadioState 0
par pavillonsNetwork.node[0].nic.phy80211p radioMinAtt 1
par pavillonsNetwork.node[0].nic.phy80211p radioMaxAtt 0
par pavillonsNetwork.node[0].nic.phy80211p nbRadioChannels 1
par pavillonsNetwork.node[0].nic.phy80211p initialRadioChannel 0
par pavillonsNetwork.node[0].nic.phy80211p ccaThreshold -65dBm
attr unit dBm
par pavillonsNetwork.node[0].nic.phy80211p collectCollisionStatistics false
par pavillonsNetwork.node[0].nic.phy80211p allowTxDuringRx false
scalar pavillonsNetwork.node[0].nic.phy80211p busyTime 0
par pavillonsNetwork.node[0].nic.mac1609_4 typename "\"org.car2x.veins.modules.mac.ieee80211p.Mac1609_4\""
par pavillonsNetwork.node[0].nic.mac1609_4 notAffectedByHostState false
par pavillonsNetwork.node[0].nic.mac1609_4 headerLength 0bit
attr unit bit
par pavillonsNetwork.node[0].nic.mac1609_4 address "\"auto\""
par pavillonsNetwork.node[0].nic.mac1609_4 useServiceChannel false
[...]
par pavillonsNetwork.node[13].nic connectionManagerName "\"connectionManager\""
par pavillonsNetwork.node[13].veinsmobility typename "\"org.car2x.veins.modules.mobility.traci.TraCIMobility\""
par pavillonsNetwork.node[13].veinsmobility notAffectedByHostState true
par pavillonsNetwork.node[13].veinsmobility x 0
par pavillonsNetwork.node[13].veinsmobility y 0
par pavillonsNetwork.node[13].veinsmobility z 0
par pavillonsNetwork.node[13].veinsmobility xOrientation 1
par pavillonsNetwork.node[13].veinsmobility yOrientation 0
par pavillonsNetwork.node[13].veinsmobility zOrientation 0
par pavillonsNetwork.node[13].veinsmobility hostPositionOffset 0m
attr unit m
par pavillonsNetwork.node[13].veinsmobility setHostSpeed false
par pavillonsNetwork.node[13].veinsmobility accidentCount 0
par pavillonsNetwork.node[13].veinsmobility accidentStart 34.0565s
attr unit s
par pavillonsNetwork.node[13].veinsmobility accidentDuration "uniform(30s, 60s)"
attr unit s
par pavillonsNetwork.node[13].veinsmobility accidentInterval "uniform(30s, 60s)"
attr unit s
scalar pavillonsNetwork.node[13].veinsmobility startTime 16
scalar pavillonsNetwork.node[13].veinsmobility totalTime 97
scalar pavillonsNetwork.node[13].veinsmobility stopTime 114
scalar pavillonsNetwork.node[13].veinsmobility minSpeed 0
scalar pavillonsNetwork.node[13].veinsmobility maxSpeed 19.684076120757
scalar pavillonsNetwork.node[13].veinsmobility totalDistance 704.46075032834
scalar pavillonsNetwork.node[13].veinsmobility totalCO2Emission 293.28906117938
par pavillonsNetwork.node[13] typename "\"org.car2x.veins.nodes.Car\""
par pavillonsNetwork.node[13] applType "\"MyVeinsApp\""
par pavillonsNetwork.node[13] nicType "\"Nic80211p\""
par pavillonsNetwork.node[13] veinsmobilityType "\"org.car2x.veins.modules.mobility.traci.TraCIMobility\""
par pavillonsNetwork.node[19].appl typename "\"org.car2x.veins.modules.application.traci.MyVeinsApp\""
par pavillonsNetwork.node[19].appl headerLength 80bit
attr unit bit
par pavillonsNetwork.node[19].appl sendBeacons false
par pavillonsNetwork.node[19].appl beaconLengthBits 256bit
attr unit bit
par pavillonsNetwork.node[19].appl beaconUserPriority 7
par pavillonsNetwork.node[19].appl beaconInterval 1s
attr unit s
par pavillonsNetwork.node[19].appl dataLengthBits 1024bit
attr unit bit
par pavillonsNetwork.node[19].appl dataOnSch false
par pavillonsNetwork.node[19].appl dataUserPriority 7
par pavillonsNetwork.node[19].appl avoidBeaconSynchronization true
par pavillonsNetwork.node[19].appl sendWSA false
par pavillonsNetwork.node[19].appl wsaLengthBits 250bit
attr unit bit
par pavillonsNetwork.node[19].appl wsaInterval 1s
attr unit s
par pavillonsNetwork.node[19].appl appName "\"My first Veins App!\""
scalar pavillonsNetwork.node[19].appl generatedWSMs 0
scalar pavillonsNetwork.node[19].appl receivedWSMs 0
scalar pavillonsNetwork.node[19].appl generatedBSMs 0
scalar pavillonsNetwork.node[19].appl receivedBSMs 0
scalar pavillonsNetwork.node[19].appl generatedWSAs 0
scalar pavillonsNetwork.node[19].appl receivedWSAs 0
par pavillonsNetwork.node[19].nic.phy80211p typename "\"org.car2x.veins.modules.phy.PhyLayer80211p\""
par pavillonsNetwork.node[19].nic.phy80211p recordStats false
par pavillonsNetwork.node[19].nic.phy80211p usePropagationDelay true
par pavillonsNetwork.node[19].nic.phy80211p noiseFloor -98dBm
attr unit dBm
par pavillonsNetwork.node[19].nic.phy80211p useNoiseFloor true
par pavillonsNetwork.node[19].nic.phy80211p antenna "<Antenna type=\"SampledAntenna1D\" id=\"monopole\">...</Antenna> at /home/simu5g/simu5g-workspace/pavillons//antenna.xml:35"
par pavillonsNetwork.node[19].nic.phy80211p antennaOffsetX 0m
attr unit m
par pavillonsNetwork.node[19].nic.phy80211p antennaOffsetY 0m
attr unit m
par pavillonsNetwork.node[19].nic.phy80211p antennaOffsetZ 1.895m
attr unit m
par pavillonsNetwork.node[19].nic.phy80211p antennaOffsetYaw 0rad
attr unit rad
par pavillonsNetwork.node[19].nic.phy80211p analogueModels "<root>...</root> at /home/simu5g/simu5g-workspace/pavillons//config.xml:34"
par pavillonsNetwork.node[19].nic.phy80211p decider "<root>...</root> at /home/simu5g/simu5g-workspace/pavillons//config.xml:34"
par pavillonsNetwork.node[19].nic.phy80211p minPowerLevel -110dBm
attr unit dBm
par pavillonsNetwork.node[19].nic.phy80211p timeRXToTX 0s
attr unit s
par pavillonsNetwork.node[19].nic.phy80211p timeRXToSleep 0s
attr unit s
par pavillonsNetwork.node[19].nic.phy80211p timeTXToRX 0s
attr unit s
par pavillonsNetwork.node[19].nic.phy80211p timeTXToSleep 0s
attr unit s
par pavillonsNetwork.node[19].nic.phy80211p timeSleepToRX 0s
attr unit s
par pavillonsNetwork.node[19].nic.phy80211p timeSleepToTX 0s
attr unit s
par pavillonsNetwork.node[19].nic.phy80211p initialRadioState 0
par pavillonsNetwork.node[19].nic.phy80211p radioMinAtt 1
par pavillonsNetwork.node[19].nic.phy80211p radioMaxAtt 0
par pavillonsNetwork.node[19].nic.phy80211p nbRadioChannels 1
par pavillonsNetwork.node[19].nic.phy80211p initialRadioChannel 0
par pavillonsNetwork.node[19].nic.phy80211p ccaThreshold -65dBm
attr unit dBm
par pavillonsNetwork.node[19].nic.phy80211p collectCollisionStatistics false
par pavillonsNetwork.node[19].nic.phy80211p allowTxDuringRx false
scalar pavillonsNetwork.node[19].nic.phy80211p busyTime 0
par pavillonsNetwork.node[19].nic.mac1609_4 typename "\"org.car2x.veins.modules.mac.ieee80211p.Mac1609_4\""
par pavillonsNetwork.node[19].nic.mac1609_4 notAffectedByHostState false
par pavillonsNetwork.node[19].nic.mac1609_4 headerLength 0bit
attr unit bit
par pavillonsNetwork.node[19].nic.mac1609_4 address "\"auto\""
par pavillonsNetwork.node[19].nic.mac1609_4 useServiceChannel false
par pavillonsNetwork.node[19].nic.mac1609_4 serviceChannel 1
par pavillonsNetwork.node[19].nic.mac1609_4 bitrate 6000000bps
attr unit bps
par pavillonsNetwork.node[19].nic.mac1609_4 syncOffset 0.0003s
attr unit s
par pavillonsNetwork.node[19].nic.mac1609_4 txPower 20mW
attr unit mW
par pavillonsNetwork.node[19].nic.mac1609_4 queueSize 0
par pavillonsNetwork.node[19].nic.mac1609_4 dot11RTSThreshold 12000bit
attr unit bit
par pavillonsNetwork.node[19].nic.mac1609_4 dot11ShortRetryLimit 7
par pavillonsNetwork.node[19].nic.mac1609_4 dot11LongRetryLimit 4
par pavillonsNetwork.node[19].nic.mac1609_4 ackLength 112bit
attr unit bit
par pavillonsNetwork.node[19].nic.mac1609_4 useAcks false
par pavillonsNetwork.node[19].nic.mac1609_4 frameErrorRate 0
par pavillonsNetwork.node[19].nic.mac1609_4 ackErrorRate 0
scalar pavillonsNetwork.node[19].nic.mac1609_4 ReceivedUnicastPackets 0
scalar pavillonsNetwork.node[19].nic.mac1609_4 ReceivedBroadcasts 0
scalar pavillonsNetwork.node[19].nic.mac1609_4 SentPackets 0
scalar pavillonsNetwork.node[19].nic.mac1609_4 SentAcknowledgements 0
scalar pavillonsNetwork.node[19].nic.mac1609_4 RetriesExceeded 0
scalar pavillonsNetwork.node[19].nic.mac1609_4 SNIRLostPackets 0
scalar pavillonsNetwork.node[19].nic.mac1609_4 RXTXLostPackets 0
scalar pavillonsNetwork.node[19].nic.mac1609_4 TotalLostPackets 0
scalar pavillonsNetwork.node[19].nic.mac1609_4 DroppedPacketsInMac 0
scalar pavillonsNetwork.node[19].nic.mac1609_4 TooLittleTime 0
scalar pavillonsNetwork.node[19].nic.mac1609_4 TimesIntoBackoff 0
scalar pavillonsNetwork.node[19].nic.mac1609_4 SlotsBackoff 0
scalar pavillonsNetwork.node[19].nic.mac1609_4 NumInternalContention 0
scalar pavillonsNetwork.node[19].nic.mac1609_4 totalBusyTime 0
scalar pavillonsNetwork.node[19].nic.mac1609_4 retriesExceeded:count 0
attr recordingmode count
attr source org_car2x_veins_modules_mac_sigRetriesExceeded
scalar pavillonsNetwork.node[19].nic.mac1609_4 sentAcks:count 0
attr recordingmode count
attr source org_car2x_veins_modules_mac_sigSentAck
scalar pavillonsNetwork.node[19].nic.mac1609_4 sentPackets:count 0
attr recordingmode count
attr source org_car2x_veins_modules_mac_sigSentPacket
scalar pavillonsNetwork.node[19].nic.mac1609_4 collisions:count 0
attr recordingmode count
attr source org_car2x_veins_modules_mac_sigCollision
scalar pavillonsNetwork.node[19].nic.mac1609_4 channelBusy:timeavg 0
attr recordingmode timeavg
attr source org_car2x_veins_modules_mac_sigChannelBusy
par pavillonsNetwork.node[19].nic typename "\"org.car2x.veins.modules.nic.Nic80211p\""
par pavillonsNetwork.node[19].nic connectionManagerName "\"connectionManager\""
par pavillonsNetwork.node[19].veinsmobility typename "\"org.car2x.veins.modules.mobility.traci.TraCIMobility\""
par pavillonsNetwork.node[19].veinsmobility notAffectedByHostState true
par pavillonsNetwork.node[19].veinsmobility x 0
par pavillonsNetwork.node[19].veinsmobility y 0
par pavillonsNetwork.node[19].veinsmobility z 0
par pavillonsNetwork.node[19].veinsmobility xOrientation 1
par pavillonsNetwork.node[19].veinsmobility yOrientation 0
par pavillonsNetwork.node[19].veinsmobility zOrientation 0
par pavillonsNetwork.node[19].veinsmobility hostPositionOffset 0m
attr unit m
par pavillonsNetwork.node[19].veinsmobility setHostSpeed false
par pavillonsNetwork.node[19].veinsmobility accidentCount 0
par pavillonsNetwork.node[19].veinsmobility accidentStart 48.2349s
attr unit s
par pavillonsNetwork.node[19].veinsmobility accidentDuration "uniform(30s, 60s)"
attr unit s
par pavillonsNetwork.node[19].veinsmobility accidentInterval "uniform(30s, 60s)"
attr unit s
scalar pavillonsNetwork.node[19].veinsmobility startTime 22
scalar pavillonsNetwork.node[19].veinsmobility totalTime 98
scalar pavillonsNetwork.node[19].veinsmobility stopTime 121
scalar pavillonsNetwork.node[19].veinsmobility minSpeed 0
scalar pavillonsNetwork.node[19].veinsmobility maxSpeed 17.62081164509
scalar pavillonsNetwork.node[19].veinsmobility totalDistance 714.7948982073
scalar pavillonsNetwork.node[19].veinsmobility totalCO2Emission 291.84062624923
par pavillonsNetwork.node[19] typename "\"org.car2x.veins.nodes.Car\""
par pavillonsNetwork.node[19] applType "\"MyVeinsApp\""
par pavillonsNetwork.node[19] nicType "\"Nic80211p\""
par pavillonsNetwork.node[19] veinsmobilityType "\"org.car2x.veins.modules.mobility.traci.TraCIMobility\""
par pavillonsNetwork.obstacles typename "\"org.car2x.veins.modules.obstacle.ObstacleControl\""
par pavillonsNetwork.obstacles obstacles "<obstacles/> at content:1"
par pavillonsNetwork.obstacles gridCellSize 250
par pavillonsNetwork.annotations typename "\"org.car2x.veins.modules.world.annotations.AnnotationManager\""
par pavillonsNetwork.annotations draw true
par pavillonsNetwork.annotations annotations "<annotations/> at content:1"
par pavillonsNetwork.connectionManager typename "\"org.car2x.veins.base.connectionManager.ConnectionManager\""
par pavillonsNetwork.connectionManager sendDirect true
par pavillonsNetwork.connectionManager maxInterfDist 2600m
attr unit m
par pavillonsNetwork.connectionManager drawMaxIntfDist false
par pavillonsNetwork.world typename "\"org.car2x.veins.base.modules.BaseWorldUtility\""
par pavillonsNetwork.world playgroundSizeX 2500m
attr unit m
par pavillonsNetwork.world playgroundSizeY 2500m
attr unit m
par pavillonsNetwork.world playgroundSizeZ 50m
attr unit m
par pavillonsNetwork.world useTorus false
par pavillonsNetwork.world use2D false
par pavillonsNetwork.manager typename "\"org.car2x.veins.modules.mobility.traci.TraCIScenarioManagerLaunchd\""
par pavillonsNetwork.manager connectAt 0s
attr unit s
par pavillonsNetwork.manager firstStepAt -1s
attr unit s
par pavillonsNetwork.manager updateInterval 1s
attr unit s
par pavillonsNetwork.manager moduleType "\"org.car2x.veins.nodes.Car\""
par pavillonsNetwork.manager moduleName "\"node\""
par pavillonsNetwork.manager moduleDisplayString "\"*='i=veins/node/car;is=vs'\""
par pavillonsNetwork.manager trafficLightModuleType "\"\""
par pavillonsNetwork.manager trafficLightModuleName "\"tls\""
par pavillonsNetwork.manager trafficLightFilter "\"\""
par pavillonsNetwork.manager trafficLightModuleDisplayString "\"i=misc/node2;is=vs;r=0,,#707070,1\""
par pavillonsNetwork.manager host "\"localhost\""
par pavillonsNetwork.manager port 9999
par pavillonsNetwork.manager seed -1
par pavillonsNetwork.manager autoShutdown true
par pavillonsNetwork.manager margin 25
par pavillonsNetwork.manager roiRoads "\"\""
par pavillonsNetwork.manager roiRects "\"\""
par pavillonsNetwork.manager penetrationRate 1
par pavillonsNetwork.manager ignoreGuiCommands false
par pavillonsNetwork.manager launchConfig "<launch>...</launch> at /home/simu5g/simu5g-workspace/pavillons//pavillons.launchd.xml:3"
scalar pavillonsNetwork.manager roiArea 0
par pavillonsNetwork.roadsCanvasVisualizer typename "\"org.car2x.veins.visualizer.roads.RoadsCanvasVisualizer\""
par pavillonsNetwork.roadsCanvasVisualizer enabled true
par pavillonsNetwork.roadsCanvasVisualizer lineZIndex -1
par pavillonsNetwork.roadsCanvasVisualizer lineColor "\"firebrick4\""
par pavillonsNetwork.roadsCanvasVisualizer lineWidth 1
par pavillonsNetwork.roadsCanvasVisualizer lineWidthZoom false
par pavillonsNetwork.rsu[0].appl typename "\"org.car2x.veins.modules.application.traci.TraCIDemoRSU11p\""
par pavillonsNetwork.rsu[0].appl headerLength 80bit
attr unit bit
par pavillonsNetwork.rsu[0].appl sendBeacons false
par pavillonsNetwork.rsu[0].appl beaconLengthBits 256bit
attr unit bit
par pavillonsNetwork.rsu[0].appl beaconUserPriority 7
par pavillonsNetwork.rsu[0].appl beaconInterval 1s
attr unit s
par pavillonsNetwork.rsu[0].appl dataLengthBits 1024bit
attr unit bit
par pavillonsNetwork.rsu[0].appl dataOnSch false
par pavillonsNetwork.rsu[0].appl dataUserPriority 5
par pavillonsNetwork.rsu[0].appl avoidBeaconSynchronization true
par pavillonsNetwork.rsu[0].appl sendWSA false
par pavillonsNetwork.rsu[0].appl wsaLengthBits 250bit
attr unit bit
par pavillonsNetwork.rsu[0].appl wsaInterval 1s
attr unit s
scalar pavillonsNetwork.rsu[0].appl generatedWSMs 0
scalar pavillonsNetwork.rsu[0].appl receivedWSMs 0
scalar pavillonsNetwork.rsu[0].appl generatedBSMs 0
scalar pavillonsNetwork.rsu[0].appl receivedBSMs 0
scalar pavillonsNetwork.rsu[0].appl generatedWSAs 0
scalar pavillonsNetwork.rsu[0].appl receivedWSAs 0
par pavillonsNetwork.rsu[0].nic.phy80211p typename "\"org.car2x.veins.modules.phy.PhyLayer80211p\""
par pavillonsNetwork.rsu[0].nic.phy80211p recordStats false
par pavillonsNetwork.rsu[0].nic.phy80211p usePropagationDelay true
par pavillonsNetwork.rsu[0].nic.phy80211p noiseFloor -98dBm
attr unit dBm
par pavillonsNetwork.rsu[0].nic.phy80211p useNoiseFloor true
par pavillonsNetwork.rsu[0].nic.phy80211p antenna "<Antenna type=\"SampledAntenna1D\" id=\"monopole\">...</Antenna> at /home/simu5g/simu5g-workspace/pavillons//antenna.xml:35"
par pavillonsNetwork.rsu[0].nic.phy80211p antennaOffsetX 0m
attr unit m
par pavillonsNetwork.rsu[0].nic.phy80211p antennaOffsetY 0m
attr unit m
par pavillonsNetwork.rsu[0].nic.phy80211p antennaOffsetZ 0m
attr unit m
par pavillonsNetwork.rsu[0].nic.phy80211p antennaOffsetYaw 0rad
attr unit rad
par pavillonsNetwork.rsu[0].nic.phy80211p analogueModels "<root>...</root> at /home/simu5g/simu5g-workspace/pavillons//config.xml:34"
par pavillonsNetwork.rsu[0].nic.phy80211p decider "<root>...</root> at /home/simu5g/simu5g-workspace/pavillons//config.xml:34"
par pavillonsNetwork.rsu[0].nic.phy80211p minPowerLevel -110dBm
attr unit dBm
par pavillonsNetwork.rsu[0].nic.phy80211p timeRXToTX 0s
attr unit s
par pavillonsNetwork.rsu[0].nic.phy80211p timeRXToSleep 0s
attr unit s
par pavillonsNetwork.rsu[0].nic.phy80211p timeTXToRX 0s
attr unit s
par pavillonsNetwork.rsu[0].nic.phy80211p timeTXToSleep 0s
attr unit s
par pavillonsNetwork.rsu[0].nic.phy80211p timeSleepToRX 0s
attr unit s
par pavillonsNetwork.rsu[0].nic.phy80211p timeSleepToTX 0s
attr unit s
par pavillonsNetwork.rsu[0].nic.phy80211p initialRadioState 0
par pavillonsNetwork.rsu[0].nic.phy80211p radioMinAtt 1
par pavillonsNetwork.rsu[0].nic.phy80211p radioMaxAtt 0
par pavillonsNetwork.rsu[0].nic.phy80211p nbRadioChannels 1
par pavillonsNetwork.rsu[0].nic.phy80211p initialRadioChannel 0
par pavillonsNetwork.rsu[0].nic.phy80211p ccaThreshold -65dBm
attr unit dBm
par pavillonsNetwork.rsu[0].nic.phy80211p collectCollisionStatistics false
par pavillonsNetwork.rsu[0].nic.phy80211p allowTxDuringRx false
scalar pavillonsNetwork.rsu[0].nic.phy80211p busyTime 0
par pavillonsNetwork.rsu[0].nic.mac1609_4 typename "\"org.car2x.veins.modules.mac.ieee80211p.Mac1609_4\""
par pavillonsNetwork.rsu[0].nic.mac1609_4 notAffectedByHostState false
par pavillonsNetwork.rsu[0].nic.mac1609_4 headerLength 0bit
attr unit bit
par pavillonsNetwork.rsu[0].nic.mac1609_4 address "\"auto\""
par pavillonsNetwork.rsu[0].nic.mac1609_4 useServiceChannel false
par pavillonsNetwork.rsu[0].nic.mac1609_4 serviceChannel 1
par pavillonsNetwork.rsu[0].nic.mac1609_4 bitrate 6000000bps
attr unit bps
par pavillonsNetwork.rsu[0].nic.mac1609_4 syncOffset 0.0003s
attr unit s
par pavillonsNetwork.rsu[0].nic.mac1609_4 txPower 20mW
attr unit mW
par pavillonsNetwork.rsu[0].nic.mac1609_4 queueSize 0
par pavillonsNetwork.rsu[0].nic.mac1609_4 dot11RTSThreshold 12000bit
attr unit bit
par pavillonsNetwork.rsu[0].nic.mac1609_4 dot11ShortRetryLimit 7
par pavillonsNetwork.rsu[0].nic.mac1609_4 dot11LongRetryLimit 4
par pavillonsNetwork.rsu[0].nic.mac1609_4 ackLength 112bit
attr unit bit
par pavillonsNetwork.rsu[0].nic.mac1609_4 useAcks false
par pavillonsNetwork.rsu[0].nic.mac1609_4 frameErrorRate 0
par pavillonsNetwork.rsu[0].nic.mac1609_4 ackErrorRate 0
scalar pavillonsNetwork.rsu[0].nic.mac1609_4 ReceivedUnicastPackets 0
scalar pavillonsNetwork.rsu[0].nic.mac1609_4 ReceivedBroadcasts 0
scalar pavillonsNetwork.rsu[0].nic.mac1609_4 SentPackets 0
scalar pavillonsNetwork.rsu[0].nic.mac1609_4 SentAcknowledgements 0
scalar pavillonsNetwork.rsu[0].nic.mac1609_4 RetriesExceeded 0
scalar pavillonsNetwork.rsu[0].nic.mac1609_4 SNIRLostPackets 0
scalar pavillonsNetwork.rsu[0].nic.mac1609_4 RXTXLostPackets 0
scalar pavillonsNetwork.rsu[0].nic.mac1609_4 TotalLostPackets 0
scalar pavillonsNetwork.rsu[0].nic.mac1609_4 DroppedPacketsInMac 0
scalar pavillonsNetwork.rsu[0].nic.mac1609_4 TooLittleTime 0
scalar pavillonsNetwork.rsu[0].nic.mac1609_4 TimesIntoBackoff 0
scalar pavillonsNetwork.rsu[0].nic.mac1609_4 SlotsBackoff 0
scalar pavillonsNetwork.rsu[0].nic.mac1609_4 NumInternalContention 0
scalar pavillonsNetwork.rsu[0].nic.mac1609_4 totalBusyTime 0
scalar pavillonsNetwork.rsu[0].nic.mac1609_4 retriesExceeded:count 0
attr recordingmode count
attr source org_car2x_veins_modules_mac_sigRetriesExceeded
scalar pavillonsNetwork.rsu[0].nic.mac1609_4 sentAcks:count 0
attr recordingmode count
attr source org_car2x_veins_modules_mac_sigSentAck
scalar pavillonsNetwork.rsu[0].nic.mac1609_4 sentPackets:count 0
attr recordingmode count
attr source org_car2x_veins_modules_mac_sigSentPacket
scalar pavillonsNetwork.rsu[0].nic.mac1609_4 collisions:count 0
attr recordingmode count
attr source org_car2x_veins_modules_mac_sigCollision
scalar pavillonsNetwork.rsu[0].nic.mac1609_4 channelBusy:timeavg 0
attr recordingmode timeavg
attr source org_car2x_veins_modules_mac_sigChannelBusy
par pavillonsNetwork.rsu[0].nic typename "\"org.car2x.veins.modules.nic.Nic80211p\""
par pavillonsNetwork.rsu[0].nic connectionManagerName "\"connectionManager\""
par pavillonsNetwork.rsu[0].mobility typename "\"org.car2x.veins.base.modules.BaseMobility\""
par pavillonsNetwork.rsu[0].mobility notAffectedByHostState true
par pavillonsNetwork.rsu[0].mobility x 2000
par pavillonsNetwork.rsu[0].mobility y 2000
par pavillonsNetwork.rsu[0].mobility z 3
par pavillonsNetwork.rsu[0].mobility xOrientation 1
par pavillonsNetwork.rsu[0].mobility yOrientation 0
par pavillonsNetwork.rsu[0].mobility zOrientation 0
par pavillonsNetwork.rsu[0] typename "\"org.car2x.veins.nodes.RSU\""
par pavillonsNetwork.rsu[0] applType "\"TraCIDemoRSU11p\""
par pavillonsNetwork.rsu[0] nicType "\"Nic80211p\""
par pavillonsNetwork typename "\"pavillonsNetwork\""
par pavillonsNetwork playgroundSizeX 2500m
attr unit m
par pavillonsNetwork playgroundSizeY 2500m
attr unit m
par pavillonsNetwork playgroundSizeZ 50m
attr unit m

