version 3
run Default-0-20230505-15:03:54-136849
attr configname Default
attr datetime 20230505-15:03:54
attr datetimef 20230505-150354
attr experiment Default
attr inifile omnetpp.ini
attr iterationvars ""
attr iterationvarsd ""
attr iterationvarsf ""
attr measurement ""
attr network pavillonsNetwork
attr processid 136849
attr repetition 0
attr replication #0
attr resultdir results
attr runnumber 0
attr seedset 0
config image-path ../veins-veins-5.2/images
config cmdenv-express-mode true
config cmdenv-autoflush true
config cmdenv-status-frequency 1s
config **.cmdenv-log-level info
config image-path ../../images
config network pavillonsNetwork
config debug-on-errors true
config print-undisposed true
config sim-time-limit 200s
config **.scalar-recording true
config **.vector-recording true
config *.playgroundSizeX 2500m
config *.playgroundSizeY 2500m
config *.playgroundSizeZ 50m
config *.annotations.draw true
config *.obstacles.debug false
config *.manager.updateInterval 1s
config *.manager.host "\"localhost\""
config *.manager.port 9999
config *.manager.autoShutdown true
config *.manager.launchConfig "xmldoc(\"pavillons.launchd.xml\")"
config *.rsu[0].mobility.x 2000
config *.rsu[0].mobility.y 2000
config *.rsu[0].mobility.z 3
config *.rsu[*].applType "\"TraCIDemoRSU11p\""
config *.rsu[*].appl.headerLength "80 bit"
config *.rsu[*].appl.sendBeacons false
config *.rsu[*].appl.dataOnSch false
config *.rsu[*].appl.beaconInterval 1s
config *.rsu[*].appl.beaconUserPriority 7
config *.rsu[*].appl.dataUserPriority 5
config *.rsu[*].nic.phy80211p.antennaOffsetZ "0 m"
config *.connectionManager.sendDirect true
config *.connectionManager.maxInterfDist 2600m
config *.connectionManager.drawMaxIntfDist false
config *.**.nic.mac1609_4.useServiceChannel false
config *.**.nic.mac1609_4.txPower 20mW
config *.**.nic.mac1609_4.bitrate 6Mbps
config *.**.nic.phy80211p.minPowerLevel -110dBm
config *.**.nic.phy80211p.useNoiseFloor true
config *.**.nic.phy80211p.noiseFloor -98dBm
config *.**.nic.phy80211p.decider "xmldoc(\"config.xml\")"
config *.**.nic.phy80211p.analogueModels "xmldoc(\"config.xml\")"
config *.**.nic.phy80211p.usePropagationDelay true
config *.**.nic.phy80211p.antenna "xmldoc(\"antenna.xml\", \"/root/Antenna[@id='monopole']\")"
config *.node[*].nic.phy80211p.antennaOffsetY "0 m"
config *.node[*].nic.phy80211p.antennaOffsetZ "1.895 m"
config *.node[*].applType "\"MyVeinsApp\""
config *.node[*].appl.headerLength "80 bit"
config *.node[*].appl.sendBeacons false
config *.node[*].appl.dataOnSch false
config *.node[*].appl.beaconInterval 1s
config *.node[*].veinsmobility.x 0
config *.node[*].veinsmobility.y 0
config *.node[*].veinsmobility.z 0
config *.node[*].veinsmobility.setHostSpeed false
config *.node[*0].veinsmobility.accidentCount 10
config *.node[*0].veinsmobility.accidentStart 73s
config *.node[*0].veinsmobility.accidentDuration 50s

par pavillonsNetwork.node[1].appl typename "\"org.car2x.veins.modules.application.traci.MyVeinsApp\""
par pavillonsNetwork.node[1].appl headerLength 80bit
attr unit bit
par pavillonsNetwork.node[1].appl sendBeacons false
par pavillonsNetwork.node[1].appl beaconLengthBits 256bit
attr unit bit
par pavillonsNetwork.node[1].appl beaconUserPriority 7
par pavillonsNetwork.node[1].appl beaconInterval 1s
attr unit s
par pavillonsNetwork.node[1].appl dataLengthBits 1024bit
attr unit bit
par pavillonsNetwork.node[1].appl dataOnSch false
par pavillonsNetwork.node[1].appl dataUserPriority 7
par pavillonsNetwork.node[1].appl avoidBeaconSynchronization true
par pavillonsNetwork.node[1].appl sendWSA false
par pavillonsNetwork.node[1].appl wsaLengthBits 250bit
attr unit bit
par pavillonsNetwork.node[1].appl wsaInterval 1s
attr unit s
par pavillonsNetwork.node[1].appl appName "\"My first Veins App!\""
scalar pavillonsNetwork.node[1].appl generatedWSMs 0
scalar pavillonsNetwork.node[1].appl receivedWSMs 0
scalar pavillonsNetwork.node[1].appl generatedBSMs 0
scalar pavillonsNetwork.node[1].appl receivedBSMs 0
scalar pavillonsNetwork.node[1].appl generatedWSAs 0
scalar pavillonsNetwork.node[1].appl receivedWSAs 0
par pavillonsNetwork.node[1].nic.phy80211p typename "\"org.car2x.veins.modules.phy.PhyLayer80211p\""
par pavillonsNetwork.node[1].nic.phy80211p recordStats false
par pavillonsNetwork.node[1].nic.phy80211p usePropagationDelay true
par pavillonsNetwork.node[1].nic.phy80211p noiseFloor -98dBm
attr unit dBm
par pavillonsNetwork.node[1].nic.phy80211p useNoiseFloor true
par pavillonsNetwork.node[1].nic.phy80211p antenna "<Antenna type=\"SampledAntenna1D\" id=\"monopole\">...</Antenna> at /home/simu5g/simu5g-workspace/pavillons//antenna.xml:35"
par pavillonsNetwork.node[1].nic.phy80211p antennaOffsetX 0m
attr unit m
par pavillonsNetwork.node[1].nic.phy80211p antennaOffsetY 0m
attr unit m
par pavillonsNetwork.node[1].nic.phy80211p antennaOffsetZ 1.895m
attr unit m
par pavillonsNetwork.node[1].nic.phy80211p antennaOffsetYaw 0rad
attr unit rad
par pavillonsNetwork.node[1].nic.phy80211p analogueModels "<root>...</root> at /home/simu5g/simu5g-workspace/pavillons//config.xml:34"
par pavillonsNetwork.node[1].nic.phy80211p decider "<root>...</root> at /home/simu5g/simu5g-workspace/pavillons//config.xml:34"
par pavillonsNetwork.node[1].nic.phy80211p minPowerLevel -110dBm
attr unit dBm
par pavillonsNetwork.node[1].nic.phy80211p timeRXToTX 0s
attr unit s
par pavillonsNetwork.node[1].nic.phy80211p timeRXToSleep 0s
attr unit s
par pavillonsNetwork.node[1].nic.phy80211p timeTXToRX 0s
attr unit s
par pavillonsNetwork.node[1].nic.phy80211p timeTXToSleep 0s
attr unit s
par pavillonsNetwork.node[1].nic.phy80211p timeSleepToRX 0s
attr unit s
par pavillonsNetwork.node[1].nic.phy80211p timeSleepToTX 0s
attr unit s
par pavillonsNetwork.node[1].nic.phy80211p initialRadioState 0
par pavillonsNetwork.node[1].nic.phy80211p radioMinAtt 1
par pavillonsNetwork.node[1].nic.phy80211p radioMaxAtt 0
par pavillonsNetwork.node[1].nic.phy80211p nbRadioChannels 1
par pavillonsNetwork.node[1].nic.phy80211p initialRadioChannel 0
par pavillonsNetwork.node[1].nic.phy80211p ccaThreshold -65dBm
attr unit dBm
par pavillonsNetwork.node[1].nic.phy80211p collectCollisionStatistics false
par pavillonsNetwork.node[1].nic.phy80211p allowTxDuringRx false
scalar pavillonsNetwork.node[1].nic.phy80211p busyTime 0
par pavillonsNetwork.node[1].nic.mac1609_4 typename "\"org.car2x.veins.modules.mac.ieee80211p.Mac1609_4\""
par pavillonsNetwork.node[1].nic.mac1609_4 notAffectedByHostState false
par pavillonsNetwork.node[1].nic.mac1609_4 headerLength 0bit
attr unit bit
par pavillonsNetwork.node[1].nic.mac1609_4 address "\"auto\""
par pavillonsNetwork.node[1].nic.mac1609_4 useServiceChannel false
par pavillonsNetwork.node[1].nic.mac1609_4 serviceChannel 1
par pavillonsNetwork.node[1].nic.mac1609_4 bitrate 6000000bps
attr unit bps
par pavillonsNetwork.node[1].nic.mac1609_4 syncOffset 0.0003s
attr unit s
par pavillonsNetwork.node[1].nic.mac1609_4 txPower 20mW
attr unit mW
par pavillonsNetwork.node[1].nic.mac1609_4 queueSize 0
par pavillonsNetwork.node[1].nic.mac1609_4 dot11RTSThreshold 12000bit
attr unit bit
par pavillonsNetwork.node[1].nic.mac1609_4 dot11ShortRetryLimit 7
par pavillonsNetwork.node[1].nic.mac1609_4 dot11LongRetryLimit 4
par pavillonsNetwork.node[1].nic.mac1609_4 ackLength 112bit
attr unit bit
par pavillonsNetwork.node[1].nic.mac1609_4 useAcks false
par pavillonsNetwork.node[1].nic.mac1609_4 frameErrorRate 0
par pavillonsNetwork.node[1].nic.mac1609_4 ackErrorRate 0
scalar pavillonsNetwork.node[1].nic.mac1609_4 ReceivedUnicastPackets 0
scalar pavillonsNetwork.node[1].nic.mac1609_4 ReceivedBroadcasts 0
scalar pavillonsNetwork.node[1].nic.mac1609_4 SentPackets 0
scalar pavillonsNetwork.node[1].nic.mac1609_4 SentAcknowledgements 0
scalar pavillonsNetwork.node[1].nic.mac1609_4 RetriesExceeded 0
scalar pavillonsNetwork.node[1].nic.mac1609_4 SNIRLostPackets 0
scalar pavillonsNetwork.node[1].nic.mac1609_4 RXTXLostPackets 0
scalar pavillonsNetwork.node[1].nic.mac1609_4 TotalLostPackets 0
scalar pavillonsNetwork.node[1].nic.mac1609_4 DroppedPacketsInMac 0
scalar pavillonsNetwork.node[1].nic.mac1609_4 TooLittleTime 0
scalar pavillonsNetwork.node[1].nic.mac1609_4 TimesIntoBackoff 0
scalar pavillonsNetwork.node[1].nic.mac1609_4 SlotsBackoff 0
scalar pavillonsNetwork.node[1].nic.mac1609_4 NumInternalContention 0
scalar pavillonsNetwork.node[1].nic.mac1609_4 totalBusyTime 0
scalar pavillonsNetwork.node[1].nic.mac1609_4 retriesExceeded:count 0
attr recordingmode count
attr source org_car2x_veins_modules_mac_sigRetriesExceeded
scalar pavillonsNetwork.node[1].nic.mac1609_4 sentAcks:count 0
attr recordingmode count
attr source org_car2x_veins_modules_mac_sigSentAck
scalar pavillonsNetwork.node[1].nic.mac1609_4 sentPackets:count 0
attr recordingmode count
attr source org_car2x_veins_modules_mac_sigSentPacket
scalar pavillonsNetwork.node[1].nic.mac1609_4 collisions:count 0
attr recordingmode count
attr source org_car2x_veins_modules_mac_sigCollision
scalar pavillonsNetwork.node[1].nic.mac1609_4 channelBusy:timeavg 0
attr recordingmode timeavg
attr source org_car2x_veins_modules_mac_sigChannelBusy
par pavillonsNetwork.node[1].nic typename "\"org.car2x.veins.modules.nic.Nic80211p\""
par pavillonsNetwork.node[1].nic connectionManagerName "\"connectionManager\""
par pavillonsNetwork.node[1].veinsmobility typename "\"org.car2x.veins.modules.mobility.traci.TraCIMobility\""
par pavillonsNetwork.node[1].veinsmobility notAffectedByHostState true
par pavillonsNetwork.node[1].veinsmobility x 0
par pavillonsNetwork.node[1].veinsmobility y 0
par pavillonsNetwork.node[1].veinsmobility z 0
par pavillonsNetwork.node[1].veinsmobility xOrientation 1
par pavillonsNetwork.node[1].veinsmobility yOrientation 0
par pavillonsNetwork.node[1].veinsmobility zOrientation 0
par pavillonsNetwork.node[1].veinsmobility hostPositionOffset 0m
attr unit m
par pavillonsNetwork.node[1].veinsmobility setHostSpeed false
par pavillonsNetwork.node[1].veinsmobility accidentCount 0
par pavillonsNetwork.node[1].veinsmobility accidentStart 42.7096s
attr unit s
par pavillonsNetwork.node[1].veinsmobility accidentDuration "uniform(30s, 60s)"
attr unit s
par pavillonsNetwork.node[1].veinsmobility accidentInterval "uniform(30s, 60s)"
attr unit s
scalar pavillonsNetwork.node[1].veinsmobility startTime 2
scalar pavillonsNetwork.node[1].veinsmobility totalTime 9
scalar pavillonsNetwork.node[1].veinsmobility stopTime 12
scalar pavillonsNetwork.node[1].veinsmobility minSpeed 1.652282136376
scalar pavillonsNetwork.node[1].veinsmobility maxSpeed 13.953659727132
scalar pavillonsNetwork.node[1].veinsmobility totalDistance 78.600185507396
scalar pavillonsNetwork.node[1].veinsmobility totalCO2Emission 39.464242757788
par pavillonsNetwork.node[1] typename "\"org.car2x.veins.nodes.Car\""
par pavillonsNetwork.node[1] applType "\"MyVeinsApp\""
par pavillonsNetwork.node[1] nicType "\"Nic80211p\""
par pavillonsNetwork.node[1] veinsmobilityType "\"org.car2x.veins.modules.mobility.traci.TraCIMobility\""
par pavillonsNetwork.node[0].appl typename "\"org.car2x.veins.modules.application.traci.MyVeinsApp\""
par pavillonsNetwork.node[0].appl headerLength 80bit
attr unit bit
par pavillonsNetwork.node[0].appl sendBeacons false
par pavillonsNetwork.node[0].appl beaconLengthBits 256bit
attr unit bit
par pavillonsNetwork.node[0].appl beaconUserPriority 7
par pavillonsNetwork.node[0].appl beaconInterval 1s
attr unit s
par pavillonsNetwork.node[0].appl dataLengthBits 1024bit
attr unit bit
par pavillonsNetwork.node[0].appl dataOnSch false
par pavillonsNetwork.node[0].appl dataUserPriority 7
par pavillonsNetwork.node[0].appl avoidBeaconSynchronization true
par pavillonsNetwork.node[0].appl sendWSA false
par pavillonsNetwork.node[0].appl wsaLengthBits 250bit
attr unit bit
par pavillonsNetwork.node[0].appl wsaInterval 1s
attr unit s
par pavillonsNetwork.node[0].appl appName "\"My first Veins App!\""
scalar pavillonsNetwork.node[0].appl generatedWSMs 0
scalar pavillonsNetwork.node[0].appl receivedWSMs 0
scalar pavillonsNetwork.node[0].appl generatedBSMs 0
scalar pavillonsNetwork.node[0].appl receivedBSMs 0
scalar pavillonsNetwork.node[0].appl generatedWSAs 0
scalar pavillonsNetwork.node[0].appl receivedWSAs 0
par pavillonsNetwork.node[0].nic.phy80211p typename "\"org.car2x.veins.modules.phy.PhyLayer80211p\""
par pavillonsNetwork.node[0].nic.phy80211p recordStats false
par pavillonsNetwork.node[0].nic.phy80211p usePropagationDelay true
par pavillonsNetwork.node[0].nic.phy80211p noiseFloor -98dBm
attr unit dBm
par pavillonsNetwork.node[0].nic.phy80211p useNoiseFloor true
par pavillonsNetwork.node[0].nic.phy80211p antenna "<Antenna type=\"SampledAntenna1D\" id=\"monopole\">...</Antenna> at /home/simu5g/simu5g-workspace/pavillons//antenna.xml:35"
par pavillonsNetwork.node[0].nic.phy80211p antennaOffsetX 0m
attr unit m
par pavillonsNetwork.node[0].nic.phy80211p antennaOffsetY 0m
attr unit m
par pavillonsNetwork.node[0].nic.phy80211p antennaOffsetZ 1.895m
attr unit m
par pavillonsNetwork.node[0].nic.phy80211p antennaOffsetYaw 0rad
attr unit rad
par pavillonsNetwork.node[0].nic.phy80211p analogueModels "<root>...</root> at /home/simu5g/simu5g-workspace/pavillons//config.xml:34"
par pavillonsNetwork.node[0].nic.phy80211p decider "<root>...</root> at /home/simu5g/simu5g-workspace/pavillons//config.xml:34"
par pavillonsNetwork.node[0].nic.phy80211p minPowerLevel -110dBm
attr unit dBm
par pavillonsNetwork.node[0].nic.phy80211p timeRXToTX 0s
attr unit s
par pavillonsNetwork.node[0].nic.phy80211p timeRXToSleep 0s
attr unit s
par pavillonsNetwork.node[0].nic.phy80211p timeTXToRX 0s
attr unit s
par pavillonsNetwork.node[0].nic.phy80211p timeTXToSleep 0s
attr unit s
par pavillonsNetwork.node[0].nic.phy80211p timeSleepToRX 0s
attr unit s
par pavillonsNetwork.node[0].nic.phy80211p timeSleepToTX 0s
attr unit s
par pavillonsNetwork.node[0].nic.phy80211p initialRadioState 0
par pavillonsNetwork.node[0].nic.phy80211p radioMinAtt 1
par pavillonsNetwork.node[0].nic.phy80211p radioMaxAtt 0
par pavillonsNetwork.node[0].nic.phy80211p nbRadioChannels 1
par pavillonsNetwork.node[0].nic.phy80211p initialRadioChannel 0
par pavillonsNetwork.node[0].nic.phy80211p ccaThreshold -65dBm
attr unit dBm
par pavillonsNetwork.node[0].nic.phy80211p collectCollisionStatistics false
par pavillonsNetwork.node[0].nic.phy80211p allowTxDuringRx false
scalar pavillonsNetwork.node[0].nic.phy80211p busyTime 0
par pavillonsNetwork.node[0].nic.mac1609_4 typename "\"org.car2x.veins.modules.mac.ieee80211p.Mac1609_4\""
par pavillonsNetwork.node[0].nic.mac1609_4 notAffectedByHostState false
par pavillonsNetwork.node[0].nic.mac1609_4 headerLength 0bit
attr unit bit
par pavillonsNetwork.node[0].nic.mac1609_4 address "\"auto\""
par pavillonsNetwork.node[0].nic.mac1609_4 useServiceChannel false
par pavillonsNetwork.node[0].nic.mac1609_4 serviceChannel 1
par pavillonsNetwork.node[0].nic.mac1609_4 bitrate 6000000bps
attr unit bps
par pavillonsNetwork.node[0].nic.mac1609_4 syncOffset 0.0003s
attr unit s
par pavillonsNetwork.node[0].nic.mac1609_4 txPower 20mW
attr unit mW
par pavillonsNetwork.node[0].nic.mac1609_4 queueSize 0
par pavillonsNetwork.node[0].nic.mac1609_4 dot11RTSThreshold 12000bit
attr unit bit
par pavillonsNetwork.node[0].nic.mac1609_4 dot11ShortRetryLimit 7
par pavillonsNetwork.node[0].nic.mac1609_4 dot11LongRetryLimit 4
par pavillonsNetwork.node[0].nic.mac1609_4 ackLength 112bit
attr unit bit
par pavillonsNetwork.node[0].nic.mac1609_4 useAcks false
par pavillonsNetwork.node[0].nic.mac1609_4 frameErrorRate 0
par pavillonsNetwork.node[0].nic.mac1609_4 ackErrorRate 0
scalar pavillonsNetwork.node[0].nic.mac1609_4 ReceivedUnicastPackets 0
scalar pavillonsNetwork.node[0].nic.mac1609_4 ReceivedBroadcasts 0
scalar pavillonsNetwork.node[0].nic.mac1609_4 SentPackets 0
scalar pavillonsNetwork.node[0].nic.mac1609_4 SentAcknowledgements 0
scalar pavillonsNetwork.node[0].nic.mac1609_4 RetriesExceeded 0
scalar pavillonsNetwork.node[0].nic.mac1609_4 SNIRLostPackets 0
scalar pavillonsNetwork.node[0].nic.mac1609_4 RXTXLostPackets 0
scalar pavillonsNetwork.node[0].nic.mac1609_4 TotalLostPackets 0
scalar pavillonsNetwork.node[0].nic.mac1609_4 DroppedPacketsInMac 0
scalar pavillonsNetwork.node[0].nic.mac1609_4 TooLittleTime 0
scalar pavillonsNetwork.node[0].nic.mac1609_4 TimesIntoBackoff 0
scalar pavillonsNetwork.node[0].nic.mac1609_4 SlotsBackoff 0
scalar pavillonsNetwork.node[0].nic.mac1609_4 NumInternalContention 0
scalar pavillonsNetwork.node[0].nic.mac1609_4 totalBusyTime 0
scalar pavillonsNetwork.node[0].nic.mac1609_4 retriesExceeded:count 0
attr recordingmode count
attr source org_car2x_veins_modules_mac_sigRetriesExceeded
scalar pavillonsNetwork.node[0].nic.mac1609_4 sentAcks:count 0
attr recordingmode count
attr source org_car2x_veins_modules_mac_sigSentAck
scalar pavillonsNetwork.node[0].nic.mac1609_4 sentPackets:count 0
attr recordingmode count
attr source org_car2x_veins_modules_mac_sigSentPacket
scalar pavillonsNetwork.node[0].nic.mac1609_4 collisions:count 0
attr recordingmode count
attr source org_car2x_veins_modules_mac_sigCollision
scalar pavillonsNetwork.node[0].nic.mac1609_4 channelBusy:timeavg 0
attr recordingmode timeavg
attr source org_car2x_veins_modules_mac_sigChannelBusy
par pavillonsNetwork.node[0].nic typename "\"org.car2x.veins.modules.nic.Nic80211p\""
par pavillonsNetwork.node[0].nic connectionManagerName "\"connectionManager\""
par pavillonsNetwork.node[0].veinsmobility typename "\"org.car2x.veins.modules.mobility.traci.TraCIMobility\""
par pavillonsNetwork.node[0].veinsmobility notAffectedByHostState true
par pavillonsNetwork.node[0].veinsmobility x 0
par pavillonsNetwork.node[0].veinsmobility y 0
par pavillonsNetwork.node[0].veinsmobility z 0
par pavillonsNetwork.node[0].veinsmobility xOrientation 1
par pavillonsNetwork.node[0].veinsmobility yOrientation 0
par pavillonsNetwork.node[0].veinsmobility zOrientation 0
par pavillonsNetwork.node[0].veinsmobility hostPositionOffset 0m
attr unit m
par pavillonsNetwork.node[0].veinsmobility setHostSpeed false
par pavillonsNetwork.node[0].veinsmobility accidentCount 10
par pavillonsNetwork.node[0].veinsmobility accidentStart 73s
attr unit s
par pavillonsNetwork.node[0].veinsmobility accidentDuration 50s
attr unit s
par pavillonsNetwork.node[0].veinsmobility accidentInterval "uniform(30s, 60s)"
attr unit s
scalar pavillonsNetwork.node[0].veinsmobility startTime 1
scalar pavillonsNetwork.node[0].veinsmobility totalTime 23
scalar pavillonsNetwork.node[0].veinsmobility stopTime 25
scalar pavillonsNetwork.node[0].veinsmobility minSpeed 2.2737992957234
scalar pavillonsNetwork.node[0].veinsmobility maxSpeed 24.178174151331
scalar pavillonsNetwork.node[0].veinsmobility totalDistance 278.26731993645
scalar pavillonsNetwork.node[0].veinsmobility totalCO2Emission 149.04081025701
par pavillonsNetwork.node[0] typename "\"org.car2x.veins.nodes.Car\""
par pavillonsNetwork.node[0] applType "\"MyVeinsApp\""
par pavillonsNetwork.node[0] nicType "\"Nic80211p\""
par pavillonsNetwork.node[0] veinsmobilityType "\"org.car2x.veins.modules.mobility.traci.TraCIMobility\""
par pavillonsNetwork.node[12].appl typename "\"org.car2x.veins.modules.application.traci.MyVeinsApp\""
par pavillonsNetwork.node[12].appl headerLength 80bit
attr unit bit
par pavillonsNetwork.node[12].appl sendBeacons false
par pavillonsNetwork.node[12].appl beaconLengthBits 256bit
attr unit bit
par pavillonsNetwork.node[12].appl beaconUserPriority 7
par pavillonsNetwork.node[12].appl beaconInterval 1s
attr unit s
par pavillonsNetwork.node[12].appl dataLengthBits 1024bit
attr unit bit
par pavillonsNetwork.node[12].appl dataOnSch false
par pavillonsNetwork.node[12].appl dataUserPriority 7
par pavillonsNetwork.node[12].appl avoidBeaconSynchronization true
par pavillonsNetwork.node[12].appl sendWSA false
par pavillonsNetwork.node[12].appl wsaLengthBits 250bit
attr unit bit
par pavillonsNetwork.node[12].appl wsaInterval 1s
attr unit s
par pavillonsNetwork.node[12].appl appName "\"My first Veins App!\""
scalar pavillonsNetwork.node[12].appl generatedWSMs 0
scalar pavillonsNetwork.node[12].appl receivedWSMs 0
scalar pavillonsNetwork.node[12].appl generatedBSMs 0
scalar pavillonsNetwork.node[12].appl receivedBSMs 0
scalar pavillonsNetwork.node[12].appl generatedWSAs 0
scalar pavillonsNetwork.node[12].appl receivedWSAs 0
par pavillonsNetwork.node[12].nic.phy80211p typename "\"org.car2x.veins.modules.phy.PhyLayer80211p\""
par pavillonsNetwork.node[12].nic.phy80211p recordStats false
par pavillonsNetwork.node[12].nic.phy80211p usePropagationDelay true
par pavillonsNetwork.node[12].nic.phy80211p noiseFloor -98dBm
attr unit dBm
par pavillonsNetwork.node[12].nic.phy80211p useNoiseFloor true
par pavillonsNetwork.node[12].nic.phy80211p antenna "<Antenna type=\"SampledAntenna1D\" id=\"monopole\">...</Antenna> at /home/simu5g/simu5g-workspace/pavillons//antenna.xml:35"
par pavillonsNetwork.node[12].nic.phy80211p antennaOffsetX 0m
attr unit m
par pavillonsNetwork.node[12].nic.phy80211p antennaOffsetY 0m
attr unit m
par pavillonsNetwork.node[12].nic.phy80211p antennaOffsetZ 1.895m
attr unit m
par pavillonsNetwork.node[12].nic.phy80211p antennaOffsetYaw 0rad
attr unit rad
par pavillonsNetwork.node[12].nic.phy80211p analogueModels "<root>...</root> at /home/simu5g/simu5g-workspace/pavillons//config.xml:34"
par pavillonsNetwork.node[12].nic.phy80211p decider "<root>...</root> at /home/simu5g/simu5g-workspace/pavillons//config.xml:34"
par pavillonsNetwork.node[12].nic.phy80211p minPowerLevel -110dBm
attr unit dBm
par pavillonsNetwork.node[12].nic.phy80211p timeRXToTX 0s
attr unit s
par pavillonsNetwork.node[12].nic.phy80211p timeRXToSleep 0s
attr unit s
par pavillonsNetwork.node[12].nic.phy80211p timeTXToRX 0s
attr unit s
par pavillonsNetwork.node[12].nic.phy80211p timeTXToSleep 0s
attr unit s
par pavillonsNetwork.node[12].nic.phy80211p timeSleepToRX 0s
attr unit s
par pavillonsNetwork.node[12].nic.phy80211p timeSleepToTX 0s
attr unit s
par pavillonsNetwork.node[12].nic.phy80211p initialRadioState 0
par pavillonsNetwork.node[12].nic.phy80211p radioMinAtt 1
par pavillonsNetwork.node[12].nic.phy80211p radioMaxAtt 0
par pavillonsNetwork.node[12].nic.phy80211p nbRadioChannels 1
par pavillonsNetwork.node[12].nic.phy80211p initialRadioChannel 0
par pavillonsNetwork.node[12].nic.phy80211p ccaThreshold -65dBm
attr unit dBm
par pavillonsNetwork.node[12].nic.phy80211p collectCollisionStatistics false
par pavillonsNetwork.node[12].nic.phy80211p allowTxDuringRx false
scalar pavillonsNetwork.node[12].nic.phy80211p busyTime 0
par pavillonsNetwork.node[12].nic.mac1609_4 typename "\"org.car2x.veins.modules.mac.ieee80211p.Mac1609_4\""
par pavillonsNetwork.node[12].nic.mac1609_4 notAffectedByHostState false
par pavillonsNetwork.node[12].nic.mac1609_4 headerLength 0bit
attr unit bit
par pavillonsNetwork.node[12].nic.mac1609_4 address "\"auto\""
par pavillonsNetwork.node[12].nic.mac1609_4 useServiceChannel false
par pavillonsNetwork.node[12].nic.mac1609_4 serviceChannel 1
par pavillonsNetwork.node[12].nic.mac1609_4 bitrate 6000000bps
attr unit bps
par pavillonsNetwork.node[12].nic.mac1609_4 syncOffset 0.0003s
attr unit s
par pavillonsNetwork.node[12].nic.mac1609_4 txPower 20mW
attr unit mW
par pavillonsNetwork.node[12].nic.mac1609_4 queueSize 0
par pavillonsNetwork.node[12].nic.mac1609_4 dot11RTSThreshold 12000bit
attr unit bit
par pavillonsNetwork.node[12].nic.mac1609_4 dot11ShortRetryLimit 7
par pavillonsNetwork.node[12].nic.mac1609_4 dot11LongRetryLimit 4
par pavillonsNetwork.node[12].nic.mac1609_4 ackLength 112bit
attr unit bit
par pavillonsNetwork.node[12].nic.mac1609_4 useAcks false
par pavillonsNetwork.node[12].nic.mac1609_4 frameErrorRate 0
par pavillonsNetwork.node[12].nic.mac1609_4 ackErrorRate 0
scalar pavillonsNetwork.node[12].nic.mac1609_4 ReceivedUnicastPackets 0
scalar pavillonsNetwork.node[12].nic.mac1609_4 ReceivedBroadcasts 0
scalar pavillonsNetwork.node[12].nic.mac1609_4 SentPackets 0
scalar pavillonsNetwork.node[12].nic.mac1609_4 SentAcknowledgements 0
scalar pavillonsNetwork.node[12].nic.mac1609_4 RetriesExceeded 0
scalar pavillonsNetwork.node[12].nic.mac1609_4 SNIRLostPackets 0
scalar pavillonsNetwork.node[12].nic.mac1609_4 RXTXLostPackets 0
scalar pavillonsNetwork.node[12].nic.mac1609_4 TotalLostPackets 0
scalar pavillonsNetwork.node[12].nic.mac1609_4 DroppedPacketsInMac 0
scalar pavillonsNetwork.node[12].nic.mac1609_4 TooLittleTime 0
scalar pavillonsNetwork.node[12].nic.mac1609_4 TimesIntoBackoff 0
scalar pavillonsNetwork.node[12].nic.mac1609_4 SlotsBackoff 0
scalar pavillonsNetwork.node[12].nic.mac1609_4 NumInternalContention 0
scalar pavillonsNetwork.node[12].nic.mac1609_4 totalBusyTime 0
scalar pavillonsNetwork.node[12].nic.mac1609_4 retriesExceeded:count 0
attr recordingmode count
attr source org_car2x_veins_modules_mac_sigRetriesExceeded
scalar pavillonsNetwork.node[12].nic.mac1609_4 sentAcks:count 0
attr recordingmode count
attr source org_car2x_veins_modules_mac_sigSentAck
scalar pavillonsNetwork.node[12].nic.mac1609_4 sentPackets:count 0
attr recordingmode count
attr source org_car2x_veins_modules_mac_sigSentPacket
scalar pavillonsNetwork.node[12].nic.mac1609_4 collisions:count 0
attr recordingmode count
attr source org_car2x_veins_modules_mac_sigCollision
scalar pavillonsNetwork.node[12].nic.mac1609_4 channelBusy:timeavg 0
attr recordingmode timeavg
attr source org_car2x_veins_modules_mac_sigChannelBusy
par pavillonsNetwork.node[12].nic typename "\"org.car2x.veins.modules.nic.Nic80211p\""
par pavillonsNetwork.node[12].nic connectionManagerName "\"connectionManager\""
par pavillonsNetwork.node[12].veinsmobility typename "\"org.car2x.veins.modules.mobility.traci.TraCIMobility\""
par pavillonsNetwork.node[12].veinsmobility notAffectedByHostState true
par pavillonsNetwork.node[12].veinsmobility x 0
par pavillonsNetwork.node[12].veinsmobility y 0
par pavillonsNetwork.node[12].veinsmobility z 0
par pavillonsNetwork.node[12].veinsmobility xOrientation 1
par pavillonsNetwork.node[12].veinsmobility yOrientation 0
par pavillonsNetwork.node[12].veinsmobility zOrientation 0
par pavillonsNetwork.node[12].veinsmobility hostPositionOffset 0m
attr unit m
par pavillonsNetwork.node[12].veinsmobility setHostSpeed false
par pavillonsNetwork.node[12].veinsmobility accidentCount 0
par pavillonsNetwork.node[12].veinsmobility accidentStart 53.227s
attr unit s
par pavillonsNetwork.node[12].veinsmobility accidentDuration "uniform(30s, 60s)"
attr unit s
par pavillonsNetwork.node[12].veinsmobility accidentInterval "uniform(30s, 60s)"
attr unit s
scalar pavillonsNetwork.node[12].veinsmobility startTime 15
scalar pavillonsNetwork.node[12].veinsmobility totalTime 9
scalar pavillonsNetwork.node[12].veinsmobility stopTime 25
scalar pavillonsNetwork.node[12].veinsmobility minSpeed 1.6906343355775
scalar pavillonsNetwork.node[12].veinsmobility maxSpeed 16.127307599783
scalar pavillonsNetwork.node[12].veinsmobility totalDistance 79.077794366111
scalar pavillonsNetwork.node[12].veinsmobility totalCO2Emission 47.919555122923
par pavillonsNetwork.node[12] typename "\"org.car2x.veins.nodes.Car\""
par pavillonsNetwork.node[12] applType "\"MyVeinsApp\""
par pavillonsNetwork.node[12] nicType "\"Nic80211p\""
par pavillonsNetwork.node[12] veinsmobilityType "\"org.car2x.veins.modules.mobility.traci.TraCIMobility\""
par pavillonsNetwork.node[6].appl typename "\"org.car2x.veins.modules.application.traci.MyVeinsApp\""
par pavillonsNetwork.node[6].appl headerLength 80bit
attr unit bit
par pavillonsNetwork.node[6].appl sendBeacons false
par pavillonsNetwork.node[6].appl beaconLengthBits 256bit
attr unit bit
par pavillonsNetwork.node[6].appl beaconUserPriority 7
par pavillonsNetwork.node[6].appl beaconInterval 1s
attr unit s
par pavillonsNetwork.node[6].appl dataLengthBits 1024bit
attr unit bit
par pavillonsNetwork.node[6].appl dataOnSch false
par pavillonsNetwork.node[6].appl dataUserPriority 7
par pavillonsNetwork.node[6].appl avoidBeaconSynchronization true
par pavillonsNetwork.node[6].appl sendWSA false
par pavillonsNetwork.node[6].appl wsaLengthBits 250bit
attr unit bit
par pavillonsNetwork.node[6].appl wsaInterval 1s
attr unit s
par pavillonsNetwork.node[6].appl appName "\"My first Veins App!\""
scalar pavillonsNetwork.node[6].appl generatedWSMs 0
scalar pavillonsNetwork.node[6].appl receivedWSMs 0
scalar pavillonsNetwork.node[6].appl generatedBSMs 0
scalar pavillonsNetwork.node[6].appl receivedBSMs 0
scalar pavillonsNetwork.node[6].appl generatedWSAs 0
scalar pavillonsNetwork.node[6].appl receivedWSAs 0
par pavillonsNetwork.node[6].nic.phy80211p typename "\"org.car2x.veins.modules.phy.PhyLayer80211p\""
par pavillonsNetwork.node[6].nic.phy80211p recordStats false
par pavillonsNetwork.node[6].nic.phy80211p usePropagationDelay true
par pavillonsNetwork.node[6].nic.phy80211p noiseFloor -98dBm
attr unit dBm
par pavillonsNetwork.node[6].nic.phy80211p useNoiseFloor true
par pavillonsNetwork.node[6].nic.phy80211p antenna "<Antenna type=\"SampledAntenna1D\" id=\"monopole\">...</Antenna> at /home/simu5g/simu5g-workspace/pavillons//antenna.xml:35"
par pavillonsNetwork.node[6].nic.phy80211p antennaOffsetX 0m
attr unit m
par pavillonsNetwork.node[6].nic.phy80211p antennaOffsetY 0m
attr unit m
par pavillonsNetwork.node[6].nic.phy80211p antennaOffsetZ 1.895m
attr unit m
par pavillonsNetwork.node[6].nic.phy80211p antennaOffsetYaw 0rad
attr unit rad
par pavillonsNetwork.node[6].nic.phy80211p analogueModels "<root>...</root> at /home/simu5g/simu5g-workspace/pavillons//config.xml:34"
par pavillonsNetwork.node[6].nic.phy80211p decider "<root>...</root> at /home/simu5g/simu5g-workspace/pavillons//config.xml:34"
par pavillonsNetwork.node[6].nic.phy80211p minPowerLevel -110dBm
attr unit dBm
par pavillonsNetwork.node[6].nic.phy80211p timeRXToTX 0s
attr unit s
par pavillonsNetwork.node[6].nic.phy80211p timeRXToSleep 0s
attr unit s
par pavillonsNetwork.node[6].nic.phy80211p timeTXToRX 0s
attr unit s
par pavillonsNetwork.node[6].nic.phy80211p timeTXToSleep 0s
attr unit s
par pavillonsNetwork.node[6].nic.phy80211p timeSleepToRX 0s
attr unit s
par pavillonsNetwork.node[6].nic.phy80211p timeSleepToTX 0s
attr unit s
par pavillonsNetwork.node[6].nic.phy80211p initialRadioState 0
par pavillonsNetwork.node[6].nic.phy80211p radioMinAtt 1
par pavillonsNetwork.node[6].nic.phy80211p radioMaxAtt 0
par pavillonsNetwork.node[6].nic.phy80211p nbRadioChannels 1
par pavillonsNetwork.node[6].nic.phy80211p initialRadioChannel 0
par pavillonsNetwork.node[6].nic.phy80211p ccaThreshold -65dBm
attr unit dBm
par pavillonsNetwork.node[6].nic.phy80211p collectCollisionStatistics false
par pavillonsNetwork.node[6].nic.phy80211p allowTxDuringRx false
scalar pavillonsNetwork.node[6].nic.phy80211p busyTime 0
par pavillonsNetwork.node[6].nic.mac1609_4 typename "\"org.car2x.veins.modules.mac.ieee80211p.Mac1609_4\""
par pavillonsNetwork.node[6].nic.mac1609_4 notAffectedByHostState false
par pavillonsNetwork.node[6].nic.mac1609_4 headerLength 0bit
attr unit bit
par pavillonsNetwork.node[6].nic.mac1609_4 address "\"auto\""
par pavillonsNetwork.node[6].nic.mac1609_4 useServiceChannel false
par pavillonsNetwork.node[6].nic.mac1609_4 serviceChannel 1
par pavillonsNetwork.node[6].nic.mac1609_4 bitrate 6000000bps
attr unit bps
par pavillonsNetwork.node[6].nic.mac1609_4 syncOffset 0.0003s
attr unit s
par pavillonsNetwork.node[6].nic.mac1609_4 txPower 20mW
attr unit mW
par pavillonsNetwork.node[6].nic.mac1609_4 queueSize 0
par pavillonsNetwork.node[6].nic.mac1609_4 dot11RTSThreshold 12000bit
attr unit bit
par pavillonsNetwork.node[6].nic.mac1609_4 dot11ShortRetryLimit 7
par pavillonsNetwork.node[6].nic.mac1609_4 dot11LongRetryLimit 4
par pavillonsNetwork.node[6].nic.mac1609_4 ackLength 112bit
attr unit bit
par pavillonsNetwork.node[6].nic.mac1609_4 useAcks false
par pavillonsNetwork.node[6].nic.mac1609_4 frameErrorRate 0
par pavillonsNetwork.node[6].nic.mac1609_4 ackErrorRate 0
scalar pavillonsNetwork.node[6].nic.mac1609_4 ReceivedUnicastPackets 0
scalar pavillonsNetwork.node[6].nic.mac1609_4 ReceivedBroadcasts 0
scalar pavillonsNetwork.node[6].nic.mac1609_4 SentPackets 0
scalar pavillonsNetwork.node[6].nic.mac1609_4 SentAcknowledgements 0
scalar pavillonsNetwork.node[6].nic.mac1609_4 RetriesExceeded 0
scalar pavillonsNetwork.node[6].nic.mac1609_4 SNIRLostPackets 0
scalar pavillonsNetwork.node[6].nic.mac1609_4 RXTXLostPackets 0
scalar pavillonsNetwork.node[6].nic.mac1609_4 TotalLostPackets 0
scalar pavillonsNetwork.node[6].nic.mac1609_4 DroppedPacketsInMac 0
scalar pavillonsNetwork.node[6].nic.mac1609_4 TooLittleTime 0
scalar pavillonsNetwork.node[6].nic.mac1609_4 TimesIntoBackoff 0
scalar pavillonsNetwork.node[6].nic.mac1609_4 SlotsBackoff 0
scalar pavillonsNetwork.node[6].nic.mac1609_4 NumInternalContention 0
scalar pavillonsNetwork.node[6].nic.mac1609_4 totalBusyTime 0
scalar pavillonsNetwork.node[6].nic.mac1609_4 retriesExceeded:count 0
attr recordingmode count
attr source org_car2x_veins_modules_mac_sigRetriesExceeded
scalar pavillonsNetwork.node[6].nic.mac1609_4 sentAcks:count 0
attr recordingmode count
attr source org_car2x_veins_modules_mac_sigSentAck
scalar pavillonsNetwork.node[6].nic.mac1609_4 sentPackets:count 0
attr recordingmode count
attr source org_car2x_veins_modules_mac_sigSentPacket
scalar pavillonsNetwork.node[6].nic.mac1609_4 collisions:count 0
attr recordingmode count
attr source org_car2x_veins_modules_mac_sigCollision
scalar pavillonsNetwork.node[6].nic.mac1609_4 channelBusy:timeavg 0
attr recordingmode timeavg
attr source org_car2x_veins_modules_mac_sigChannelBusy
par pavillonsNetwork.node[6].nic typename "\"org.car2x.veins.modules.nic.Nic80211p\""
par pavillonsNetwork.node[6].nic connectionManagerName "\"connectionManager\""
par pavillonsNetwork.node[6].veinsmobility typename "\"org.car2x.veins.modules.mobility.traci.TraCIMobility\""
par pavillonsNetwork.node[6].veinsmobility notAffectedByHostState true
par pavillonsNetwork.node[6].veinsmobility x 0
par pavillonsNetwork.node[6].veinsmobility y 0
par pavillonsNetwork.node[6].veinsmobility z 0
par pavillonsNetwork.node[6].veinsmobility xOrientation 1
par pavillonsNetwork.node[6].veinsmobility yOrientation 0
par pavillonsNetwork.node[6].veinsmobility zOrientation 0
par pavillonsNetwork.node[6].veinsmobility hostPositionOffset 0m
attr unit m
par pavillonsNetwork.node[6].veinsmobility setHostSpeed false
par pavillonsNetwork.node[6].veinsmobility accidentCount 0
par pavillonsNetwork.node[6].veinsmobility accidentStart 41.0472s
attr unit s
par pavillonsNetwork.node[6].veinsmobility accidentDuration "uniform(30s, 60s)"
attr unit s
par pavillonsNetwork.node[6].veinsmobility accidentInterval "uniform(30s, 60s)"
attr unit s
scalar pavillonsNetwork.node[6].veinsmobility startTime 8
scalar pavillonsNetwork.node[6].veinsmobility totalTime 25
scalar pavillonsNetwork.node[6].veinsmobility stopTime 34
scalar pavillonsNetwork.node[6].veinsmobility minSpeed 0
scalar pavillonsNetwork.node[6].veinsmobility maxSpeed 11.809670504043
scalar pavillonsNetwork.node[6].veinsmobility totalDistance 121.12058272359
scalar pavillonsNetwork.node[6].veinsmobility totalCO2Emission 68.338523601697
par pavillonsNetwork.node[6] typename "\"org.car2x.veins.nodes.Car\""
par pavillonsNetwork.node[6] applType "\"MyVeinsApp\""
par pavillonsNetwork.node[6] nicType "\"Nic80211p\""
par pavillonsNetwork.node[6] veinsmobilityType "\"org.car2x.veins.modules.mobility.traci.TraCIMobility\""
par pavillonsNetwork.node[7].appl typename "\"org.car2x.veins.modules.application.traci.MyVeinsApp\""
par pavillonsNetwork.node[7].appl headerLength 80bit
attr unit bit
par pavillonsNetwork.node[7].appl sendBeacons false
par pavillonsNetwork.node[7].appl beaconLengthBits 256bit
attr unit bit
par pavillonsNetwork.node[7].appl beaconUserPriority 7
par pavillonsNetwork.node[7].appl beaconInterval 1s
attr unit s
par pavillonsNetwork.node[7].appl dataLengthBits 1024bit
attr unit bit
par pavillonsNetwork.node[7].appl dataOnSch false
par pavillonsNetwork.node[7].appl dataUserPriority 7
par pavillonsNetwork.node[7].appl avoidBeaconSynchronization true
par pavillonsNetwork.node[7].appl sendWSA false
par pavillonsNetwork.node[7].appl wsaLengthBits 250bit
attr unit bit
par pavillonsNetwork.node[7].appl wsaInterval 1s
attr unit s
par pavillonsNetwork.node[7].appl appName "\"My first Veins App!\""
scalar pavillonsNetwork.node[7].appl generatedWSMs 0
scalar pavillonsNetwork.node[7].appl receivedWSMs 0
scalar pavillonsNetwork.node[7].appl generatedBSMs 0
scalar pavillonsNetwork.node[7].appl receivedBSMs 0
scalar pavillonsNetwork.node[7].appl generatedWSAs 0
scalar pavillonsNetwork.node[7].appl receivedWSAs 0
par pavillonsNetwork.node[7].nic.phy80211p typename "\"org.car2x.veins.modules.phy.PhyLayer80211p\""
par pavillonsNetwork.node[7].nic.phy80211p recordStats false
par pavillonsNetwork.node[7].nic.phy80211p usePropagationDelay true
par pavillonsNetwork.node[7].nic.phy80211p noiseFloor -98dBm
attr unit dBm
par pavillonsNetwork.node[7].nic.phy80211p useNoiseFloor true
par pavillonsNetwork.node[7].nic.phy80211p antenna "<Antenna type=\"SampledAntenna1D\" id=\"monopole\">...</Antenna> at /home/simu5g/simu5g-workspace/pavillons//antenna.xml:35"
par pavillonsNetwork.node[7].nic.phy80211p antennaOffsetX 0m
attr unit m
par pavillonsNetwork.node[7].nic.phy80211p antennaOffsetY 0m
attr unit m
par pavillonsNetwork.node[7].nic.phy80211p antennaOffsetZ 1.895m
attr unit m
par pavillonsNetwork.node[7].nic.phy80211p antennaOffsetYaw 0rad
attr unit rad
par pavillonsNetwork.node[7].nic.phy80211p analogueModels "<root>...</root> at /home/simu5g/simu5g-workspace/pavillons//config.xml:34"
par pavillonsNetwork.node[7].nic.phy80211p decider "<root>...</root> at /home/simu5g/simu5g-workspace/pavillons//config.xml:34"
par pavillonsNetwork.node[7].nic.phy80211p minPowerLevel -110dBm
attr unit dBm
par pavillonsNetwork.node[7].nic.phy80211p timeRXToTX 0s
attr unit s
par pavillonsNetwork.node[7].nic.phy80211p timeRXToSleep 0s
attr unit s
par pavillonsNetwork.node[7].nic.phy80211p timeTXToRX 0s
attr unit s
par pavillonsNetwork.node[7].nic.phy80211p timeTXToSleep 0s
attr unit s
par pavillonsNetwork.node[7].nic.phy80211p timeSleepToRX 0s
attr unit s
par pavillonsNetwork.node[7].nic.phy80211p timeSleepToTX 0s
attr unit s
par pavillonsNetwork.node[7].nic.phy80211p initialRadioState 0
par pavillonsNetwork.node[7].nic.phy80211p radioMinAtt 1
par pavillonsNetwork.node[7].nic.phy80211p radioMaxAtt 0
par pavillonsNetwork.node[7].nic.phy80211p nbRadioChannels 1
par pavillonsNetwork.node[7].nic.phy80211p initialRadioChannel 0
par pavillonsNetwork.node[7].nic.phy80211p ccaThreshold -65dBm
attr unit dBm
par pavillonsNetwork.node[7].nic.phy80211p collectCollisionStatistics false
par pavillonsNetwork.node[7].nic.phy80211p allowTxDuringRx false
scalar pavillonsNetwork.node[7].nic.phy80211p busyTime 0
par pavillonsNetwork.node[7].nic.mac1609_4 typename "\"org.car2x.veins.modules.mac.ieee80211p.Mac1609_4\""
par pavillonsNetwork.node[7].nic.mac1609_4 notAffectedByHostState false
par pavillonsNetwork.node[7].nic.mac1609_4 headerLength 0bit
attr unit bit
par pavillonsNetwork.node[7].nic.mac1609_4 address "\"auto\""
par pavillonsNetwork.node[7].nic.mac1609_4 useServiceChannel false
par pavillonsNetwork.node[7].nic.mac1609_4 serviceChannel 1
par pavillonsNetwork.node[7].nic.mac1609_4 bitrate 6000000bps
attr unit bps
par pavillonsNetwork.node[7].nic.mac1609_4 syncOffset 0.0003s
attr unit s
par pavillonsNetwork.node[7].nic.mac1609_4 txPower 20mW
attr unit mW
par pavillonsNetwork.node[7].nic.mac1609_4 queueSize 0
par pavillonsNetwork.node[7].nic.mac1609_4 dot11RTSThreshold 12000bit
attr unit bit
par pavillonsNetwork.node[7].nic.mac1609_4 dot11ShortRetryLimit 7
par pavillonsNetwork.node[7].nic.mac1609_4 dot11LongRetryLimit 4
par pavillonsNetwork.node[7].nic.mac1609_4 ackLength 112bit
attr unit bit
par pavillonsNetwork.node[7].nic.mac1609_4 useAcks false
par pavillonsNetwork.node[7].nic.mac1609_4 frameErrorRate 0
par pavillonsNetwork.node[7].nic.mac1609_4 ackErrorRate 0
scalar pavillonsNetwork.node[7].nic.mac1609_4 ReceivedUnicastPackets 0
scalar pavillonsNetwork.node[7].nic.mac1609_4 ReceivedBroadcasts 0
scalar pavillonsNetwork.node[7].nic.mac1609_4 SentPackets 0
scalar pavillonsNetwork.node[7].nic.mac1609_4 SentAcknowledgements 0
scalar pavillonsNetwork.node[7].nic.mac1609_4 RetriesExceeded 0
scalar pavillonsNetwork.node[7].nic.mac1609_4 SNIRLostPackets 0
scalar pavillonsNetwork.node[7].nic.mac1609_4 RXTXLostPackets 0
scalar pavillonsNetwork.node[7].nic.mac1609_4 TotalLostPackets 0
scalar pavillonsNetwork.node[7].nic.mac1609_4 DroppedPacketsInMac 0
scalar pavillonsNetwork.node[7].nic.mac1609_4 TooLittleTime 0
scalar pavillonsNetwork.node[7].nic.mac1609_4 TimesIntoBackoff 0
scalar pavillonsNetwork.node[7].nic.mac1609_4 SlotsBackoff 0
scalar pavillonsNetwork.node[7].nic.mac1609_4 NumInternalContention 0
scalar pavillonsNetwork.node[7].nic.mac1609_4 totalBusyTime 0
scalar pavillonsNetwork.node[7].nic.mac1609_4 retriesExceeded:count 0
attr recordingmode count
attr source org_car2x_veins_modules_mac_sigRetriesExceeded
scalar pavillonsNetwork.node[7].nic.mac1609_4 sentAcks:count 0
attr recordingmode count
attr source org_car2x_veins_modules_mac_sigSentAck
scalar pavillonsNetwork.node[7].nic.mac1609_4 sentPackets:count 0
attr recordingmode count
attr source org_car2x_veins_modules_mac_sigSentPacket
scalar pavillonsNetwork.node[7].nic.mac1609_4 collisions:count 0
attr recordingmode count
attr source org_car2x_veins_modules_mac_sigCollision
scalar pavillonsNetwork.node[7].nic.mac1609_4 channelBusy:timeavg 0
attr recordingmode timeavg
attr source org_car2x_veins_modules_mac_sigChannelBusy
par pavillonsNetwork.node[7].nic typename "\"org.car2x.veins.modules.nic.Nic80211p\""
par pavillonsNetwork.node[7].nic connectionManagerName "\"connectionManager\""
par pavillonsNetwork.node[7].veinsmobility typename "\"org.car2x.veins.modules.mobility.traci.TraCIMobility\""
par pavillonsNetwork.node[7].veinsmobility notAffectedByHostState true
par pavillonsNetwork.node[7].veinsmobility x 0
par pavillonsNetwork.node[7].veinsmobility y 0
par pavillonsNetwork.node[7].veinsmobility z 0
par pavillonsNetwork.node[7].veinsmobility xOrientation 1
par pavillonsNetwork.node[7].veinsmobility yOrientation 0
par pavillonsNetwork.node[7].veinsmobility zOrientation 0
par pavillonsNetwork.node[7].veinsmobility hostPositionOffset 0m
attr unit m
par pavillonsNetwork.node[7].veinsmobility setHostSpeed false
par pavillonsNetwork.node[7].veinsmobility accidentCount 0
par pavillonsNetwork.node[7].veinsmobility accidentStart 56.1004s
attr unit s
par pavillonsNetwork.node[7].veinsmobility accidentDuration "uniform(30s, 60s)"
attr unit s
par pavillonsNetwork.node[7].veinsmobility accidentInterval "uniform(30s, 60s)"
attr unit s
scalar pavillonsNetwork.node[7].veinsmobility startTime 8
scalar pavillonsNetwork.node[7].veinsmobility totalTime 31
scalar pavillonsNetwork.node[7].veinsmobility stopTime 40
scalar pavillonsNetwork.node[7].veinsmobility minSpeed 0.0066541252815629
scalar pavillonsNetwork.node[7].veinsmobility maxSpeed 16.47740739762
scalar pavillonsNetwork.node[7].veinsmobility totalDistance 207.31103269612
scalar pavillonsNetwork.node[7].veinsmobility totalCO2Emission 106.8368212355
par pavillonsNetwork.node[7] typename "\"org.car2x.veins.nodes.Car\""
par pavillonsNetwork.node[7] applType "\"MyVeinsApp\""
par pavillonsNetwork.node[7] nicType "\"Nic80211p\""
par pavillonsNetwork.node[7] veinsmobilityType "\"org.car2x.veins.modules.mobility.traci.TraCIMobility\""
par pavillonsNetwork.node[26].appl typename "\"org.car2x.veins.modules.application.traci.MyVeinsApp\""
par pavillonsNetwork.node[26].appl headerLength 80bit
attr unit bit
par pavillonsNetwork.node[26].appl sendBeacons false
par pavillonsNetwork.node[26].appl beaconLengthBits 256bit
attr unit bit
par pavillonsNetwork.node[26].appl beaconUserPriority 7
par pavillonsNetwork.node[26].appl beaconInterval 1s
attr unit s
par pavillonsNetwork.node[26].appl dataLengthBits 1024bit
attr unit bit
par pavillonsNetwork.node[26].appl dataOnSch false
par pavillonsNetwork.node[26].appl dataUserPriority 7
par pavillonsNetwork.node[26].appl avoidBeaconSynchronization true
par pavillonsNetwork.node[26].appl sendWSA false
par pavillonsNetwork.node[26].appl wsaLengthBits 250bit
attr unit bit
par pavillonsNetwork.node[26].appl wsaInterval 1s
attr unit s
par pavillonsNetwork.node[26].appl appName "\"My first Veins App!\""
scalar pavillonsNetwork.node[26].appl generatedWSMs 0
scalar pavillonsNetwork.node[26].appl receivedWSMs 0
scalar pavillonsNetwork.node[26].appl generatedBSMs 0
scalar pavillonsNetwork.node[26].appl receivedBSMs 0
scalar pavillonsNetwork.node[26].appl generatedWSAs 0
scalar pavillonsNetwork.node[26].appl receivedWSAs 0
par pavillonsNetwork.node[26].nic.phy80211p typename "\"org.car2x.veins.modules.phy.PhyLayer80211p\""
par pavillonsNetwork.node[26].nic.phy80211p recordStats false
par pavillonsNetwork.node[26].nic.phy80211p usePropagationDelay true
par pavillonsNetwork.node[26].nic.phy80211p noiseFloor -98dBm
attr unit dBm
par pavillonsNetwork.node[26].nic.phy80211p useNoiseFloor true
par pavillonsNetwork.node[26].nic.phy80211p antenna "<Antenna type=\"SampledAntenna1D\" id=\"monopole\">...</Antenna> at /home/simu5g/simu5g-workspace/pavillons//antenna.xml:35"
par pavillonsNetwork.node[26].nic.phy80211p antennaOffsetX 0m
attr unit m
par pavillonsNetwork.node[26].nic.phy80211p antennaOffsetY 0m
attr unit m
par pavillonsNetwork.node[26].nic.phy80211p antennaOffsetZ 1.895m
attr unit m
par pavillonsNetwork.node[26].nic.phy80211p antennaOffsetYaw 0rad
attr unit rad
par pavillonsNetwork.node[26].nic.phy80211p analogueModels "<root>...</root> at /home/simu5g/simu5g-workspace/pavillons//config.xml:34"
par pavillonsNetwork.node[26].nic.phy80211p decider "<root>...</root> at /home/simu5g/simu5g-workspace/pavillons//config.xml:34"
par pavillonsNetwork.node[26].nic.phy80211p minPowerLevel -110dBm
attr unit dBm
par pavillonsNetwork.node[26].nic.phy80211p timeRXToTX 0s
attr unit s
par pavillonsNetwork.node[26].nic.phy80211p timeRXToSleep 0s
attr unit s
par pavillonsNetwork.node[26].nic.phy80211p timeTXToRX 0s
attr unit s
par pavillonsNetwork.node[26].nic.phy80211p timeTXToSleep 0s
attr unit s
par pavillonsNetwork.node[26].nic.phy80211p timeSleepToRX 0s
attr unit s
par pavillonsNetwork.node[26].nic.phy80211p timeSleepToTX 0s
attr unit s
par pavillonsNetwork.node[26].nic.phy80211p initialRadioState 0
par pavillonsNetwork.node[26].nic.phy80211p radioMinAtt 1
par pavillonsNetwork.node[26].nic.phy80211p radioMaxAtt 0
par pavillonsNetwork.node[26].nic.phy80211p nbRadioChannels 1
par pavillonsNetwork.node[26].nic.phy80211p initialRadioChannel 0
par pavillonsNetwork.node[26].nic.phy80211p ccaThreshold -65dBm
attr unit dBm
par pavillonsNetwork.node[26].nic.phy80211p collectCollisionStatistics false
par pavillonsNetwork.node[26].nic.phy80211p allowTxDuringRx false
scalar pavillonsNetwork.node[26].nic.phy80211p busyTime 0
par pavillonsNetwork.node[26].nic.mac1609_4 typename "\"org.car2x.veins.modules.mac.ieee80211p.Mac1609_4\""
par pavillonsNetwork.node[26].nic.mac1609_4 notAffectedByHostState false
par pavillonsNetwork.node[26].nic.mac1609_4 headerLength 0bit
attr unit bit
par pavillonsNetwork.node[26].nic.mac1609_4 address "\"auto\""
par pavillonsNetwork.node[26].nic.mac1609_4 useServiceChannel false
par pavillonsNetwork.node[26].nic.mac1609_4 serviceChannel 1
par pavillonsNetwork.node[26].nic.mac1609_4 bitrate 6000000bps
attr unit bps
par pavillonsNetwork.node[26].nic.mac1609_4 syncOffset 0.0003s
attr unit s
par pavillonsNetwork.node[26].nic.mac1609_4 txPower 20mW
attr unit mW
par pavillonsNetwork.node[26].nic.mac1609_4 queueSize 0
par pavillonsNetwork.node[26].nic.mac1609_4 dot11RTSThreshold 12000bit
attr unit bit
par pavillonsNetwork.node[26].nic.mac1609_4 dot11ShortRetryLimit 7
par pavillonsNetwork.node[26].nic.mac1609_4 dot11LongRetryLimit 4
par pavillonsNetwork.node[26].nic.mac1609_4 ackLength 112bit
attr unit bit
par pavillonsNetwork.node[26].nic.mac1609_4 useAcks false
par pavillonsNetwork.node[26].nic.mac1609_4 frameErrorRate 0
par pavillonsNetwork.node[26].nic.mac1609_4 ackErrorRate 0
scalar pavillonsNetwork.node[26].nic.mac1609_4 ReceivedUnicastPackets 0
scalar pavillonsNetwork.node[26].nic.mac1609_4 ReceivedBroadcasts 0
scalar pavillonsNetwork.node[26].nic.mac1609_4 SentPackets 0
scalar pavillonsNetwork.node[26].nic.mac1609_4 SentAcknowledgements 0
scalar pavillonsNetwork.node[26].nic.mac1609_4 RetriesExceeded 0
scalar pavillonsNetwork.node[26].nic.mac1609_4 SNIRLostPackets 0
scalar pavillonsNetwork.node[26].nic.mac1609_4 RXTXLostPackets 0
scalar pavillonsNetwork.node[26].nic.mac1609_4 TotalLostPackets 0
scalar pavillonsNetwork.node[26].nic.mac1609_4 DroppedPacketsInMac 0
scalar pavillonsNetwork.node[26].nic.mac1609_4 TooLittleTime 0
scalar pavillonsNetwork.node[26].nic.mac1609_4 TimesIntoBackoff 0
scalar pavillonsNetwork.node[26].nic.mac1609_4 SlotsBackoff 0
scalar pavillonsNetwork.node[26].nic.mac1609_4 NumInternalContention 0
scalar pavillonsNetwork.node[26].nic.mac1609_4 totalBusyTime 0
scalar pavillonsNetwork.node[26].nic.mac1609_4 retriesExceeded:count 0
attr recordingmode count
attr source org_car2x_veins_modules_mac_sigRetriesExceeded
scalar pavillonsNetwork.node[26].nic.mac1609_4 sentAcks:count 0
attr recordingmode count
attr source org_car2x_veins_modules_mac_sigSentAck
scalar pavillonsNetwork.node[26].nic.mac1609_4 sentPackets:count 0
attr recordingmode count
attr source org_car2x_veins_modules_mac_sigSentPacket
scalar pavillonsNetwork.node[26].nic.mac1609_4 collisions:count 0
attr recordingmode count
attr source org_car2x_veins_modules_mac_sigCollision
scalar pavillonsNetwork.node[26].nic.mac1609_4 channelBusy:timeavg 0
attr recordingmode timeavg
attr source org_car2x_veins_modules_mac_sigChannelBusy
par pavillonsNetwork.node[26].nic typename "\"org.car2x.veins.modules.nic.Nic80211p\""
par pavillonsNetwork.node[26].nic connectionManagerName "\"connectionManager\""
par pavillonsNetwork.node[26].veinsmobility typename "\"org.car2x.veins.modules.mobility.traci.TraCIMobility\""
par pavillonsNetwork.node[26].veinsmobility notAffectedByHostState true
par pavillonsNetwork.node[26].veinsmobility x 0
par pavillonsNetwork.node[26].veinsmobility y 0
par pavillonsNetwork.node[26].veinsmobility z 0
par pavillonsNetwork.node[26].veinsmobility xOrientation 1
par pavillonsNetwork.node[26].veinsmobility yOrientation 0
par pavillonsNetwork.node[26].veinsmobility zOrientation 0
par pavillonsNetwork.node[26].veinsmobility hostPositionOffset 0m
attr unit m
par pavillonsNetwork.node[26].veinsmobility setHostSpeed false
par pavillonsNetwork.node[26].veinsmobility accidentCount 0
par pavillonsNetwork.node[26].veinsmobility accidentStart 49.8758s
attr unit s
par pavillonsNetwork.node[26].veinsmobility accidentDuration "uniform(30s, 60s)"
attr unit s
par pavillonsNetwork.node[26].veinsmobility accidentInterval "uniform(30s, 60s)"
attr unit s
scalar pavillonsNetwork.node[26].veinsmobility startTime 30
scalar pavillonsNetwork.node[26].veinsmobility totalTime 11
scalar pavillonsNetwork.node[26].veinsmobility stopTime 42
scalar pavillonsNetwork.node[26].veinsmobility minSpeed 2.1877563935006
scalar pavillonsNetwork.node[26].veinsmobility maxSpeed 11.975865247799
scalar pavillonsNetwork.node[26].veinsmobility totalDistance 75.502143359611
scalar pavillonsNetwork.node[26].veinsmobility totalCO2Emission 31.765356635088
par pavillonsNetwork.node[26] typename "\"org.car2x.veins.nodes.Car\""
par pavillonsNetwork.node[26] applType "\"MyVeinsApp\""
par pavillonsNetwork.node[26] nicType "\"Nic80211p\""
par pavillonsNetwork.node[26] veinsmobilityType "\"org.car2x.veins.modules.mobility.traci.TraCIMobility\""
par pavillonsNetwork.node[32].appl typename "\"org.car2x.veins.modules.application.traci.MyVeinsApp\""
par pavillonsNetwork.node[32].appl headerLength 80bit
attr unit bit
par pavillonsNetwork.node[32].appl sendBeacons false
par pavillonsNetwork.node[32].appl beaconLengthBits 256bit
attr unit bit
par pavillonsNetwork.node[32].appl beaconUserPriority 7
par pavillonsNetwork.node[32].appl beaconInterval 1s
attr unit s
par pavillonsNetwork.node[32].appl dataLengthBits 1024bit
attr unit bit
par pavillonsNetwork.node[32].appl dataOnSch false
par pavillonsNetwork.node[32].appl dataUserPriority 7
par pavillonsNetwork.node[32].appl avoidBeaconSynchronization true
par pavillonsNetwork.node[32].appl sendWSA false
par pavillonsNetwork.node[32].appl wsaLengthBits 250bit
attr unit bit
par pavillonsNetwork.node[32].appl wsaInterval 1s
attr unit s
par pavillonsNetwork.node[32].appl appName "\"My first Veins App!\""
scalar pavillonsNetwork.node[32].appl generatedWSMs 0
scalar pavillonsNetwork.node[32].appl receivedWSMs 0
scalar pavillonsNetwork.node[32].appl generatedBSMs 0
scalar pavillonsNetwork.node[32].appl receivedBSMs 0
scalar pavillonsNetwork.node[32].appl generatedWSAs 0
scalar pavillonsNetwork.node[32].appl receivedWSAs 0
par pavillonsNetwork.node[32].nic.phy80211p typename "\"org.car2x.veins.modules.phy.PhyLayer80211p\""
par pavillonsNetwork.node[32].nic.phy80211p recordStats false
par pavillonsNetwork.node[32].nic.phy80211p usePropagationDelay true
par pavillonsNetwork.node[32].nic.phy80211p noiseFloor -98dBm
attr unit dBm
par pavillonsNetwork.node[32].nic.phy80211p useNoiseFloor true
par pavillonsNetwork.node[32].nic.phy80211p antenna "<Antenna type=\"SampledAntenna1D\" id=\"monopole\">...</Antenna> at /home/simu5g/simu5g-workspace/pavillons//antenna.xml:35"
par pavillonsNetwork.node[32].nic.phy80211p antennaOffsetX 0m
attr unit m
par pavillonsNetwork.node[32].nic.phy80211p antennaOffsetY 0m
attr unit m
par pavillonsNetwork.node[32].nic.phy80211p antennaOffsetZ 1.895m
attr unit m
par pavillonsNetwork.node[32].nic.phy80211p antennaOffsetYaw 0rad
attr unit rad
par pavillonsNetwork.node[32].nic.phy80211p analogueModels "<root>...</root> at /home/simu5g/simu5g-workspace/pavillons//config.xml:34"
par pavillonsNetwork.node[32].nic.phy80211p decider "<root>...</root> at /home/simu5g/simu5g-workspace/pavillons//config.xml:34"
par pavillonsNetwork.node[32].nic.phy80211p minPowerLevel -110dBm
attr unit dBm
par pavillonsNetwork.node[32].nic.phy80211p timeRXToTX 0s
attr unit s
par pavillonsNetwork.node[32].nic.phy80211p timeRXToSleep 0s
attr unit s
par pavillonsNetwork.node[32].nic.phy80211p timeTXToRX 0s
attr unit s
par pavillonsNetwork.node[32].nic.phy80211p timeTXToSleep 0s
attr unit s
par pavillonsNetwork.node[32].nic.phy80211p timeSleepToRX 0s
attr unit s
par pavillonsNetwork.node[32].nic.phy80211p timeSleepToTX 0s
attr unit s
par pavillonsNetwork.node[32].nic.phy80211p initialRadioState 0
par pavillonsNetwork.node[32].nic.phy80211p radioMinAtt 1
par pavillonsNetwork.node[32].nic.phy80211p radioMaxAtt 0
par pavillonsNetwork.node[32].nic.phy80211p nbRadioChannels 1
par pavillonsNetwork.node[32].nic.phy80211p initialRadioChannel 0
par pavillonsNetwork.node[32].nic.phy80211p ccaThreshold -65dBm
attr unit dBm
par pavillonsNetwork.node[32].nic.phy80211p collectCollisionStatistics false
par pavillonsNetwork.node[32].nic.phy80211p allowTxDuringRx false
scalar pavillonsNetwork.node[32].nic.phy80211p busyTime 0
par pavillonsNetwork.node[32].nic.mac1609_4 typename "\"org.car2x.veins.modules.mac.ieee80211p.Mac1609_4\""
par pavillonsNetwork.node[32].nic.mac1609_4 notAffectedByHostState false
par pavillonsNetwork.node[32].nic.mac1609_4 headerLength 0bit
attr unit bit
par pavillonsNetwork.node[32].nic.mac1609_4 address "\"auto\""
par pavillonsNetwork.node[32].nic.mac1609_4 useServiceChannel false
par pavillonsNetwork.node[32].nic.mac1609_4 serviceChannel 1
par pavillonsNetwork.node[32].nic.mac1609_4 bitrate 6000000bps
attr unit bps
par pavillonsNetwork.node[32].nic.mac1609_4 syncOffset 0.0003s
attr unit s
par pavillonsNetwork.node[32].nic.mac1609_4 txPower 20mW
attr unit mW
par pavillonsNetwork.node[32].nic.mac1609_4 queueSize 0
par pavillonsNetwork.node[32].nic.mac1609_4 dot11RTSThreshold 12000bit
attr unit bit
par pavillonsNetwork.node[32].nic.mac1609_4 dot11ShortRetryLimit 7
par pavillonsNetwork.node[32].nic.mac1609_4 dot11LongRetryLimit 4
par pavillonsNetwork.node[32].nic.mac1609_4 ackLength 112bit
attr unit bit
par pavillonsNetwork.node[32].nic.mac1609_4 useAcks false
par pavillonsNetwork.node[32].nic.mac1609_4 frameErrorRate 0
par pavillonsNetwork.node[32].nic.mac1609_4 ackErrorRate 0
scalar pavillonsNetwork.node[32].nic.mac1609_4 ReceivedUnicastPackets 0
scalar pavillonsNetwork.node[32].nic.mac1609_4 ReceivedBroadcasts 0
scalar pavillonsNetwork.node[32].nic.mac1609_4 SentPackets 0
scalar pavillonsNetwork.node[32].nic.mac1609_4 SentAcknowledgements 0
scalar pavillonsNetwork.node[32].nic.mac1609_4 RetriesExceeded 0
scalar pavillonsNetwork.node[32].nic.mac1609_4 SNIRLostPackets 0
scalar pavillonsNetwork.node[32].nic.mac1609_4 RXTXLostPackets 0
scalar pavillonsNetwork.node[32].nic.mac1609_4 TotalLostPackets 0
scalar pavillonsNetwork.node[32].nic.mac1609_4 DroppedPacketsInMac 0
scalar pavillonsNetwork.node[32].nic.mac1609_4 TooLittleTime 0
scalar pavillonsNetwork.node[32].nic.mac1609_4 TimesIntoBackoff 0
scalar pavillonsNetwork.node[32].nic.mac1609_4 SlotsBackoff 0
scalar pavillonsNetwork.node[32].nic.mac1609_4 NumInternalContention 0
scalar pavillonsNetwork.node[32].nic.mac1609_4 totalBusyTime 0
scalar pavillonsNetwork.node[32].nic.mac1609_4 retriesExceeded:count 0
attr recordingmode count
attr source org_car2x_veins_modules_mac_sigRetriesExceeded
scalar pavillonsNetwork.node[32].nic.mac1609_4 sentAcks:count 0
attr recordingmode count
attr source org_car2x_veins_modules_mac_sigSentAck
scalar pavillonsNetwork.node[32].nic.mac1609_4 sentPackets:count 0
attr recordingmode count
attr source org_car2x_veins_modules_mac_sigSentPacket
scalar pavillonsNetwork.node[32].nic.mac1609_4 collisions:count 0
attr recordingmode count
attr source org_car2x_veins_modules_mac_sigCollision
scalar pavillonsNetwork.node[32].nic.mac1609_4 channelBusy:timeavg 0
attr recordingmode timeavg
attr source org_car2x_veins_modules_mac_sigChannelBusy
par pavillonsNetwork.node[32].nic typename "\"org.car2x.veins.modules.nic.Nic80211p\""
par pavillonsNetwork.node[32].nic connectionManagerName "\"connectionManager\""
par pavillonsNetwork.node[32].veinsmobility typename "\"org.car2x.veins.modules.mobility.traci.TraCIMobility\""
par pavillonsNetwork.node[32].veinsmobility notAffectedByHostState true
par pavillonsNetwork.node[32].veinsmobility x 0
par pavillonsNetwork.node[32].veinsmobility y 0
par pavillonsNetwork.node[32].veinsmobility z 0
par pavillonsNetwork.node[32].veinsmobility xOrientation 1
par pavillonsNetwork.node[32].veinsmobility yOrientation 0
par pavillonsNetwork.node[32].veinsmobility zOrientation 0
par pavillonsNetwork.node[32].veinsmobility hostPositionOffset 0m
attr unit m
par pavillonsNetwork.node[32].veinsmobility setHostSpeed false
par pavillonsNetwork.node[32].veinsmobility accidentCount 0
par pavillonsNetwork.node[32].veinsmobility accidentStart 39.5395s
attr unit s
par pavillonsNetwork.node[32].veinsmobility accidentDuration "uniform(30s, 60s)"
attr unit s
par pavillonsNetwork.node[32].veinsmobility accidentInterval "uniform(30s, 60s)"
attr unit s
scalar pavillonsNetwork.node[32].veinsmobility startTime 35
scalar pavillonsNetwork.node[32].veinsmobility totalTime 6
scalar pavillonsNetwork.node[32].veinsmobility stopTime 42
scalar pavillonsNetwork.node[32].veinsmobility minSpeed 1.3388890681788
scalar pavillonsNetwork.node[32].veinsmobility maxSpeed 10.982510217954
scalar pavillonsNetwork.node[32].veinsmobility totalDistance 36.031698184613
scalar pavillonsNetwork.node[32].veinsmobility totalCO2Emission 24.046406446264
par pavillonsNetwork.node[32] typename "\"org.car2x.veins.nodes.Car\""
par pavillonsNetwork.node[32] applType "\"MyVeinsApp\""
par pavillonsNetwork.node[32] nicType "\"Nic80211p\""
par pavillonsNetwork.node[32] veinsmobilityType "\"org.car2x.veins.modules.mobility.traci.TraCIMobility\""
par pavillonsNetwork.obstacles typename "\"org.car2x.veins.modules.obstacle.ObstacleControl\""
par pavillonsNetwork.obstacles obstacles "<obstacles/> at content:1"
par pavillonsNetwork.obstacles gridCellSize 250
par pavillonsNetwork.annotations typename "\"org.car2x.veins.modules.world.annotations.AnnotationManager\""
par pavillonsNetwork.annotations draw true
par pavillonsNetwork.annotations annotations "<annotations/> at content:1"
par pavillonsNetwork.connectionManager typename "\"org.car2x.veins.base.connectionManager.ConnectionManager\""
par pavillonsNetwork.connectionManager sendDirect true
par pavillonsNetwork.connectionManager maxInterfDist 2600m
attr unit m
par pavillonsNetwork.connectionManager drawMaxIntfDist false
par pavillonsNetwork.world typename "\"org.car2x.veins.base.modules.BaseWorldUtility\""
par pavillonsNetwork.world playgroundSizeX 2500m
attr unit m
par pavillonsNetwork.world playgroundSizeY 2500m
attr unit m
par pavillonsNetwork.world playgroundSizeZ 50m
attr unit m
par pavillonsNetwork.world useTorus false
par pavillonsNetwork.world use2D false
par pavillonsNetwork.manager typename "\"org.car2x.veins.modules.mobility.traci.TraCIScenarioManagerLaunchd\""
par pavillonsNetwork.manager connectAt 0s
attr unit s
par pavillonsNetwork.manager firstStepAt -1s
attr unit s
par pavillonsNetwork.manager updateInterval 1s
attr unit s
par pavillonsNetwork.manager moduleType "\"org.car2x.veins.nodes.Car\""
par pavillonsNetwork.manager moduleName "\"node\""
par pavillonsNetwork.manager moduleDisplayString "\"*='i=veins/node/car;is=vs'\""
par pavillonsNetwork.manager trafficLightModuleType "\"\""
par pavillonsNetwork.manager trafficLightModuleName "\"tls\""
par pavillonsNetwork.manager trafficLightFilter "\"\""
par pavillonsNetwork.manager trafficLightModuleDisplayString "\"i=misc/node2;is=vs;r=0,,#707070,1\""
par pavillonsNetwork.manager host "\"localhost\""
par pavillonsNetwork.manager port 9999
par pavillonsNetwork.manager seed -1
par pavillonsNetwork.manager autoShutdown true
par pavillonsNetwork.manager margin 25
par pavillonsNetwork.manager roiRoads "\"\""
par pavillonsNetwork.manager roiRects "\"\""
par pavillonsNetwork.manager penetrationRate 1
par pavillonsNetwork.manager ignoreGuiCommands false
par pavillonsNetwork.manager launchConfig "<launch>...</launch> at /home/simu5g/simu5g-workspace/pavillons//pavillons.launchd.xml:3"
scalar pavillonsNetwork.manager roiArea 0
par pavillonsNetwork.roadsCanvasVisualizer typename "\"org.car2x.veins.visualizer.roads.RoadsCanvasVisualizer\""
par pavillonsNetwork.roadsCanvasVisualizer enabled true
par pavillonsNetwork.roadsCanvasVisualizer lineZIndex -1
par pavillonsNetwork.roadsCanvasVisualizer lineColor "\"firebrick4\""
par pavillonsNetwork.roadsCanvasVisualizer lineWidth 1
par pavillonsNetwork.roadsCanvasVisualizer lineWidthZoom false
par pavillonsNetwork.node[2].appl typename "\"org.car2x.veins.modules.application.traci.MyVeinsApp\""
par pavillonsNetwork.node[2].appl headerLength 80bit
attr unit bit
par pavillonsNetwork.node[2].appl sendBeacons false
par pavillonsNetwork.node[2].appl beaconLengthBits 256bit
attr unit bit
par pavillonsNetwork.node[2].appl beaconUserPriority 7
par pavillonsNetwork.node[2].appl beaconInterval 1s
attr unit s
par pavillonsNetwork.node[2].appl dataLengthBits 1024bit
attr unit bit
par pavillonsNetwork.node[2].appl dataOnSch false
par pavillonsNetwork.node[2].appl dataUserPriority 7
par pavillonsNetwork.node[2].appl avoidBeaconSynchronization true
par pavillonsNetwork.node[2].appl sendWSA false
par pavillonsNetwork.node[2].appl wsaLengthBits 250bit
attr unit bit
par pavillonsNetwork.node[2].appl wsaInterval 1s
attr unit s
par pavillonsNetwork.node[2].appl appName "\"My first Veins App!\""
scalar pavillonsNetwork.node[2].appl generatedWSMs 0
scalar pavillonsNetwork.node[2].appl receivedWSMs 0
scalar pavillonsNetwork.node[2].appl generatedBSMs 0
scalar pavillonsNetwork.node[2].appl receivedBSMs 0
scalar pavillonsNetwork.node[2].appl generatedWSAs 0
scalar pavillonsNetwork.node[2].appl receivedWSAs 0
par pavillonsNetwork.node[2].nic.phy80211p typename "\"org.car2x.veins.modules.phy.PhyLayer80211p\""
par pavillonsNetwork.node[2].nic.phy80211p recordStats false
par pavillonsNetwork.node[2].nic.phy80211p usePropagationDelay true
par pavillonsNetwork.node[2].nic.phy80211p noiseFloor -98dBm
attr unit dBm
par pavillonsNetwork.node[2].nic.phy80211p useNoiseFloor true
par pavillonsNetwork.node[2].nic.phy80211p antenna "<Antenna type=\"SampledAntenna1D\" id=\"monopole\">...</Antenna> at /home/simu5g/simu5g-workspace/pavillons//antenna.xml:35"
par pavillonsNetwork.node[2].nic.phy80211p antennaOffsetX 0m
attr unit m
par pavillonsNetwork.node[2].nic.phy80211p antennaOffsetY 0m
attr unit m
par pavillonsNetwork.node[2].nic.phy80211p antennaOffsetZ 1.895m
attr unit m
par pavillonsNetwork.node[2].nic.phy80211p antennaOffsetYaw 0rad
attr unit rad
par pavillonsNetwork.node[2].nic.phy80211p analogueModels "<root>...</root> at /home/simu5g/simu5g-workspace/pavillons//config.xml:34"
par pavillonsNetwork.node[2].nic.phy80211p decider "<root>...</root> at /home/simu5g/simu5g-workspace/pavillons//config.xml:34"
par pavillonsNetwork.node[2].nic.phy80211p minPowerLevel -110dBm
attr unit dBm
par pavillonsNetwork.node[2].nic.phy80211p timeRXToTX 0s
attr unit s
par pavillonsNetwork.node[2].nic.phy80211p timeRXToSleep 0s
attr unit s
par pavillonsNetwork.node[2].nic.phy80211p timeTXToRX 0s
attr unit s
par pavillonsNetwork.node[2].nic.phy80211p timeTXToSleep 0s
attr unit s
par pavillonsNetwork.node[2].nic.phy80211p timeSleepToRX 0s
attr unit s
par pavillonsNetwork.node[2].nic.phy80211p timeSleepToTX 0s
attr unit s
par pavillonsNetwork.node[2].nic.phy80211p initialRadioState 0
par pavillonsNetwork.node[2].nic.phy80211p radioMinAtt 1
par pavillonsNetwork.node[2].nic.phy80211p radioMaxAtt 0
par pavillonsNetwork.node[2].nic.phy80211p nbRadioChannels 1
par pavillonsNetwork.node[2].nic.phy80211p initialRadioChannel 0
par pavillonsNetwork.node[2].nic.phy80211p ccaThreshold -65dBm
attr unit dBm
par pavillonsNetwork.node[2].nic.phy80211p collectCollisionStatistics false
par pavillonsNetwork.node[2].nic.phy80211p allowTxDuringRx false
scalar pavillonsNetwork.node[2].nic.phy80211p busyTime 0
par pavillonsNetwork.node[2].nic.mac1609_4 typename "\"org.car2x.veins.modules.mac.ieee80211p.Mac1609_4\""
par pavillonsNetwork.node[2].nic.mac1609_4 notAffectedByHostState false
par pavillonsNetwork.node[2].nic.mac1609_4 headerLength 0bit
attr unit bit
par pavillonsNetwork.node[2].nic.mac1609_4 address "\"auto\""
par pavillonsNetwork.node[2].nic.mac1609_4 useServiceChannel false
par pavillonsNetwork.node[2].nic.mac1609_4 serviceChannel 1
par pavillonsNetwork.node[2].nic.mac1609_4 bitrate 6000000bps
attr unit bps
par pavillonsNetwork.node[2].nic.mac1609_4 syncOffset 0.0003s
attr unit s
par pavillonsNetwork.node[2].nic.mac1609_4 txPower 20mW
attr unit mW
par pavillonsNetwork.node[2].nic.mac1609_4 queueSize 0
par pavillonsNetwork.node[2].nic.mac1609_4 dot11RTSThreshold 12000bit
attr unit bit
par pavillonsNetwork.node[2].nic.mac1609_4 dot11ShortRetryLimit 7
par pavillonsNetwork.node[2].nic.mac1609_4 dot11LongRetryLimit 4
par pavillonsNetwork.node[2].nic.mac1609_4 ackLength 112bit
attr unit bit
par pavillonsNetwork.node[2].nic.mac1609_4 useAcks false
par pavillonsNetwork.node[2].nic.mac1609_4 frameErrorRate 0
par pavillonsNetwork.node[2].nic.mac1609_4 ackErrorRate 0
scalar pavillonsNetwork.node[2].nic.mac1609_4 ReceivedUnicastPackets 0
scalar pavillonsNetwork.node[2].nic.mac1609_4 ReceivedBroadcasts 0
scalar pavillonsNetwork.node[2].nic.mac1609_4 SentPackets 0
scalar pavillonsNetwork.node[2].nic.mac1609_4 SentAcknowledgements 0
scalar pavillonsNetwork.node[2].nic.mac1609_4 RetriesExceeded 0
scalar pavillonsNetwork.node[2].nic.mac1609_4 SNIRLostPackets 0
scalar pavillonsNetwork.node[2].nic.mac1609_4 RXTXLostPackets 0
scalar pavillonsNetwork.node[2].nic.mac1609_4 TotalLostPackets 0
scalar pavillonsNetwork.node[2].nic.mac1609_4 DroppedPacketsInMac 0
scalar pavillonsNetwork.node[2].nic.mac1609_4 TooLittleTime 0
scalar pavillonsNetwork.node[2].nic.mac1609_4 TimesIntoBackoff 0
scalar pavillonsNetwork.node[2].nic.mac1609_4 SlotsBackoff 0
scalar pavillonsNetwork.node[2].nic.mac1609_4 NumInternalContention 0
scalar pavillonsNetwork.node[2].nic.mac1609_4 totalBusyTime 0
scalar pavillonsNetwork.node[2].nic.mac1609_4 retriesExceeded:count 0
attr recordingmode count
attr source org_car2x_veins_modules_mac_sigRetriesExceeded
scalar pavillonsNetwork.node[2].nic.mac1609_4 sentAcks:count 0
attr recordingmode count
attr source org_car2x_veins_modules_mac_sigSentAck
scalar pavillonsNetwork.node[2].nic.mac1609_4 sentPackets:count 0
attr recordingmode count
attr source org_car2x_veins_modules_mac_sigSentPacket
scalar pavillonsNetwork.node[2].nic.mac1609_4 collisions:count 0
attr recordingmode count
attr source org_car2x_veins_modules_mac_sigCollision
scalar pavillonsNetwork.node[2].nic.mac1609_4 channelBusy:timeavg 0
attr recordingmode timeavg
attr source org_car2x_veins_modules_mac_sigChannelBusy
par pavillonsNetwork.node[2].nic typename "\"org.car2x.veins.modules.nic.Nic80211p\""
par pavillonsNetwork.node[2].nic connectionManagerName "\"connectionManager\""
par pavillonsNetwork.node[2].veinsmobility typename "\"org.car2x.veins.modules.mobility.traci.TraCIMobility\""
par pavillonsNetwork.node[2].veinsmobility notAffectedByHostState true
par pavillonsNetwork.node[2].veinsmobility x 0
par pavillonsNetwork.node[2].veinsmobility y 0
par pavillonsNetwork.node[2].veinsmobility z 0
par pavillonsNetwork.node[2].veinsmobility xOrientation 1
par pavillonsNetwork.node[2].veinsmobility yOrientation 0
par pavillonsNetwork.node[2].veinsmobility zOrientation 0
par pavillonsNetwork.node[2].veinsmobility hostPositionOffset 0m
attr unit m
par pavillonsNetwork.node[2].veinsmobility setHostSpeed false
par pavillonsNetwork.node[2].veinsmobility accidentCount 0
par pavillonsNetwork.node[2].veinsmobility accidentStart 38.926s
attr unit s
par pavillonsNetwork.node[2].veinsmobility accidentDuration "uniform(30s, 60s)"
attr unit s
par pavillonsNetwork.node[2].veinsmobility accidentInterval "uniform(30s, 60s)"
attr unit s
scalar pavillonsNetwork.node[2].veinsmobility startTime 3
scalar pavillonsNetwork.node[2].veinsmobility totalTime 99
scalar pavillonsNetwork.node[2].veinsmobility stopTime 102
scalar pavillonsNetwork.node[2].veinsmobility minSpeed 0
scalar pavillonsNetwork.node[2].veinsmobility maxSpeed 11.990620523901
scalar pavillonsNetwork.node[2].veinsmobility totalDistance 176.34049280062
scalar pavillonsNetwork.node[2].veinsmobility totalCO2Emission 152.26887880813
par pavillonsNetwork.node[2] typename "\"org.car2x.veins.nodes.Car\""
par pavillonsNetwork.node[2] applType "\"MyVeinsApp\""
par pavillonsNetwork.node[2] nicType "\"Nic80211p\""
par pavillonsNetwork.node[2] veinsmobilityType "\"org.car2x.veins.modules.mobility.traci.TraCIMobility\""
par pavillonsNetwork.node[3].appl typename "\"org.car2x.veins.modules.application.traci.MyVeinsApp\""
par pavillonsNetwork.node[3].appl headerLength 80bit
attr unit bit
par pavillonsNetwork.node[3].appl sendBeacons false
par pavillonsNetwork.node[3].appl beaconLengthBits 256bit
attr unit bit
par pavillonsNetwork.node[3].appl beaconUserPriority 7
par pavillonsNetwork.node[3].appl beaconInterval 1s
attr unit s
par pavillonsNetwork.node[3].appl dataLengthBits 1024bit
attr unit bit
par pavillonsNetwork.node[3].appl dataOnSch false
par pavillonsNetwork.node[3].appl dataUserPriority 7
par pavillonsNetwork.node[3].appl avoidBeaconSynchronization true
par pavillonsNetwork.node[3].appl sendWSA false
par pavillonsNetwork.node[3].appl wsaLengthBits 250bit
attr unit bit
par pavillonsNetwork.node[3].appl wsaInterval 1s
attr unit s
par pavillonsNetwork.node[3].appl appName "\"My first Veins App!\""
scalar pavillonsNetwork.node[3].appl generatedWSMs 0
scalar pavillonsNetwork.node[3].appl receivedWSMs 0
scalar pavillonsNetwork.node[3].appl generatedBSMs 0
scalar pavillonsNetwork.node[3].appl receivedBSMs 0
scalar pavillonsNetwork.node[3].appl generatedWSAs 0
scalar pavillonsNetwork.node[3].appl receivedWSAs 0
par pavillonsNetwork.node[3].nic.phy80211p typename "\"org.car2x.veins.modules.phy.PhyLayer80211p\""
par pavillonsNetwork.node[3].nic.phy80211p recordStats false
par pavillonsNetwork.node[3].nic.phy80211p usePropagationDelay true
par pavillonsNetwork.node[3].nic.phy80211p noiseFloor -98dBm
attr unit dBm
par pavillonsNetwork.node[3].nic.phy80211p useNoiseFloor true
par pavillonsNetwork.node[3].nic.phy80211p antenna "<Antenna type=\"SampledAntenna1D\" id=\"monopole\">...</Antenna> at /home/simu5g/simu5g-workspace/pavillons//antenna.xml:35"
par pavillonsNetwork.node[3].nic.phy80211p antennaOffsetX 0m
attr unit m
par pavillonsNetwork.node[3].nic.phy80211p antennaOffsetY 0m
attr unit m
par pavillonsNetwork.node[3].nic.phy80211p antennaOffsetZ 1.895m
attr unit m
par pavillonsNetwork.node[3].nic.phy80211p antennaOffsetYaw 0rad
attr unit rad
par pavillonsNetwork.node[3].nic.phy80211p analogueModels "<root>...</root> at /home/simu5g/simu5g-workspace/pavillons//config.xml:34"
par pavillonsNetwork.node[3].nic.phy80211p decider "<root>...</root> at /home/simu5g/simu5g-workspace/pavillons//config.xml:34"
par pavillonsNetwork.node[3].nic.phy80211p minPowerLevel -110dBm
attr unit dBm
par pavillonsNetwork.node[3].nic.phy80211p timeRXToTX 0s
attr unit s
par pavillonsNetwork.node[3].nic.phy80211p timeRXToSleep 0s
attr unit s
par pavillonsNetwork.node[3].nic.phy80211p timeTXToRX 0s
attr unit s
par pavillonsNetwork.node[3].nic.phy80211p timeTXToSleep 0s
attr unit s
par pavillonsNetwork.node[3].nic.phy80211p timeSleepToRX 0s
attr unit s
par pavillonsNetwork.node[3].nic.phy80211p timeSleepToTX 0s
attr unit s
par pavillonsNetwork.node[3].nic.phy80211p initialRadioState 0
par pavillonsNetwork.node[3].nic.phy80211p radioMinAtt 1
par pavillonsNetwork.node[3].nic.phy80211p radioMaxAtt 0
par pavillonsNetwork.node[3].nic.phy80211p nbRadioChannels 1
par pavillonsNetwork.node[3].nic.phy80211p initialRadioChannel 0
par pavillonsNetwork.node[3].nic.phy80211p ccaThreshold -65dBm
attr unit dBm
par pavillonsNetwork.node[3].nic.phy80211p collectCollisionStatistics false
par pavillonsNetwork.node[3].nic.phy80211p allowTxDuringRx false
scalar pavillonsNetwork.node[3].nic.phy80211p busyTime 0
par pavillonsNetwork.node[3].nic.mac1609_4 typename "\"org.car2x.veins.modules.mac.ieee80211p.Mac1609_4\""
par pavillonsNetwork.node[3].nic.mac1609_4 notAffectedByHostState false
par pavillonsNetwork.node[3].nic.mac1609_4 headerLength 0bit
attr unit bit
par pavillonsNetwork.node[3].nic.mac1609_4 address "\"auto\""
par pavillonsNetwork.node[3].nic.mac1609_4 useServiceChannel false
par pavillonsNetwork.node[3].nic.mac1609_4 serviceChannel 1
par pavillonsNetwork.node[3].nic.mac1609_4 bitrate 6000000bps
attr unit bps
par pavillonsNetwork.node[3].nic.mac1609_4 syncOffset 0.0003s
attr unit s
par pavillonsNetwork.node[3].nic.mac1609_4 txPower 20mW
attr unit mW
par pavillonsNetwork.node[3].nic.mac1609_4 queueSize 0
par pavillonsNetwork.node[3].nic.mac1609_4 dot11RTSThreshold 12000bit
attr unit bit
par pavillonsNetwork.node[3].nic.mac1609_4 dot11ShortRetryLimit 7
par pavillonsNetwork.node[3].nic.mac1609_4 dot11LongRetryLimit 4
par pavillonsNetwork.node[3].nic.mac1609_4 ackLength 112bit
attr unit bit
par pavillonsNetwork.node[3].nic.mac1609_4 useAcks false
par pavillonsNetwork.node[3].nic.mac1609_4 frameErrorRate 0
par pavillonsNetwork.node[3].nic.mac1609_4 ackErrorRate 0
scalar pavillonsNetwork.node[3].nic.mac1609_4 ReceivedUnicastPackets 0
scalar pavillonsNetwork.node[3].nic.mac1609_4 ReceivedBroadcasts 0
scalar pavillonsNetwork.node[3].nic.mac1609_4 SentPackets 0
scalar pavillonsNetwork.node[3].nic.mac1609_4 SentAcknowledgements 0
scalar pavillonsNetwork.node[3].nic.mac1609_4 RetriesExceeded 0
scalar pavillonsNetwork.node[3].nic.mac1609_4 SNIRLostPackets 0
scalar pavillonsNetwork.node[3].nic.mac1609_4 RXTXLostPackets 0
scalar pavillonsNetwork.node[3].nic.mac1609_4 TotalLostPackets 0
scalar pavillonsNetwork.node[3].nic.mac1609_4 DroppedPacketsInMac 0
scalar pavillonsNetwork.node[3].nic.mac1609_4 TooLittleTime 0
scalar pavillonsNetwork.node[3].nic.mac1609_4 TimesIntoBackoff 0
scalar pavillonsNetwork.node[3].nic.mac1609_4 SlotsBackoff 0
scalar pavillonsNetwork.node[3].nic.mac1609_4 NumInternalContention 0
scalar pavillonsNetwork.node[3].nic.mac1609_4 totalBusyTime 0
scalar pavillonsNetwork.node[3].nic.mac1609_4 retriesExceeded:count 0
attr recordingmode count
attr source org_car2x_veins_modules_mac_sigRetriesExceeded
scalar pavillonsNetwork.node[3].nic.mac1609_4 sentAcks:count 0
attr recordingmode count
attr source org_car2x_veins_modules_mac_sigSentAck
scalar pavillonsNetwork.node[3].nic.mac1609_4 sentPackets:count 0
attr recordingmode count
attr source org_car2x_veins_modules_mac_sigSentPacket
scalar pavillonsNetwork.node[3].nic.mac1609_4 collisions:count 0
attr recordingmode count
attr source org_car2x_veins_modules_mac_sigCollision
scalar pavillonsNetwork.node[3].nic.mac1609_4 channelBusy:timeavg 0
attr recordingmode timeavg
attr source org_car2x_veins_modules_mac_sigChannelBusy
par pavillonsNetwork.node[3].nic typename "\"org.car2x.veins.modules.nic.Nic80211p\""
par pavillonsNetwork.node[3].nic connectionManagerName "\"connectionManager\""
par pavillonsNetwork.node[3].veinsmobility typename "\"org.car2x.veins.modules.mobility.traci.TraCIMobility\""
par pavillonsNetwork.node[3].veinsmobility notAffectedByHostState true
par pavillonsNetwork.node[3].veinsmobility x 0
par pavillonsNetwork.node[3].veinsmobility y 0
par pavillonsNetwork.node[3].veinsmobility z 0
par pavillonsNetwork.node[3].veinsmobility xOrientation 1
par pavillonsNetwork.node[3].veinsmobility yOrientation 0
par pavillonsNetwork.node[3].veinsmobility zOrientation 0
par pavillonsNetwork.node[3].veinsmobility hostPositionOffset 0m
attr unit m
par pavillonsNetwork.node[3].veinsmobility setHostSpeed false
par pavillonsNetwork.node[3].veinsmobility accidentCount 0
par pavillonsNetwork.node[3].veinsmobility accidentStart 41.5032s
attr unit s
par pavillonsNetwork.node[3].veinsmobility accidentDuration "uniform(30s, 60s)"
attr unit s
par pavillonsNetwork.node[3].veinsmobility accidentInterval "uniform(30s, 60s)"
attr unit s
scalar pavillonsNetwork.node[3].veinsmobility startTime 4
scalar pavillonsNetwork.node[3].veinsmobility totalTime 98
scalar pavillonsNetwork.node[3].veinsmobility stopTime 102
scalar pavillonsNetwork.node[3].veinsmobility minSpeed 0
scalar pavillonsNetwork.node[3].veinsmobility maxSpeed 14.786893192346
scalar pavillonsNetwork.node[3].veinsmobility totalDistance 389.65025373597
scalar pavillonsNetwork.node[3].veinsmobility totalCO2Emission 200.55624645428
par pavillonsNetwork.node[3] typename "\"org.car2x.veins.nodes.Car\""
par pavillonsNetwork.node[3] applType "\"MyVeinsApp\""
par pavillonsNetwork.node[3] nicType "\"Nic80211p\""
par pavillonsNetwork.node[3] veinsmobilityType "\"org.car2x.veins.modules.mobility.traci.TraCIMobility\""
par pavillonsNetwork.node[4].appl typename "\"org.car2x.veins.modules.application.traci.MyVeinsApp\""
par pavillonsNetwork.node[4].appl headerLength 80bit
attr unit bit
par pavillonsNetwork.node[4].appl sendBeacons false
par pavillonsNetwork.node[4].appl beaconLengthBits 256bit
attr unit bit
par pavillonsNetwork.node[4].appl beaconUserPriority 7
par pavillonsNetwork.node[4].appl beaconInterval 1s
attr unit s
par pavillonsNetwork.node[4].appl dataLengthBits 1024bit
attr unit bit
par pavillonsNetwork.node[4].appl dataOnSch false
par pavillonsNetwork.node[4].appl dataUserPriority 7
par pavillonsNetwork.node[4].appl avoidBeaconSynchronization true
par pavillonsNetwork.node[4].appl sendWSA false
par pavillonsNetwork.node[4].appl wsaLengthBits 250bit
attr unit bit
par pavillonsNetwork.node[4].appl wsaInterval 1s
attr unit s
par pavillonsNetwork.node[4].appl appName "\"My first Veins App!\""
scalar pavillonsNetwork.node[4].appl generatedWSMs 0
scalar pavillonsNetwork.node[4].appl receivedWSMs 0
[...]
scalar pavillonsNetwork.node[80].nic.phy80211p busyTime 0
par pavillonsNetwork.node[80].nic.mac1609_4 typename "\"org.car2x.veins.modules.mac.ieee80211p.Mac1609_4\""
par pavillonsNetwork.node[80].nic.mac1609_4 notAffectedByHostState false
par pavillonsNetwork.node[80].nic.mac1609_4 headerLength 0bit
attr unit bit
par pavillonsNetwork.node[80].nic.mac1609_4 address "\"auto\""
par pavillonsNetwork.node[80].nic.mac1609_4 useServiceChannel false
par pavillonsNetwork.node[80].nic.mac1609_4 serviceChannel 1
par pavillonsNetwork.node[80].nic.mac1609_4 bitrate 6000000bps
attr unit bps
par pavillonsNetwork.node[80].nic.mac1609_4 syncOffset 0.0003s
attr unit s
par pavillonsNetwork.node[80].nic.mac1609_4 txPower 20mW
attr unit mW
par pavillonsNetwork.node[80].nic.mac1609_4 queueSize 0
par pavillonsNetwork.node[80].nic.mac1609_4 dot11RTSThreshold 12000bit
attr unit bit
par pavillonsNetwork.node[80].nic.mac1609_4 dot11ShortRetryLimit 7
par pavillonsNetwork.node[80].nic.mac1609_4 dot11LongRetryLimit 4
par pavillonsNetwork.node[80].nic.mac1609_4 ackLength 112bit
attr unit bit
par pavillonsNetwork.node[80].nic.mac1609_4 useAcks false
par pavillonsNetwork.node[80].nic.mac1609_4 frameErrorRate 0
par pavillonsNetwork.node[80].nic.mac1609_4 ackErrorRate 0
scalar pavillonsNetwork.node[80].nic.mac1609_4 ReceivedUnicastPackets 0
scalar pavillonsNetwork.node[80].nic.mac1609_4 ReceivedBroadcasts 0
scalar pavillonsNetwork.node[80].nic.mac1609_4 SentPackets 0
scalar pavillonsNetwork.node[80].nic.mac1609_4 SentAcknowledgements 0
scalar pavillonsNetwork.node[80].nic.mac1609_4 RetriesExceeded 0
scalar pavillonsNetwork.node[80].nic.mac1609_4 SNIRLostPackets 0
scalar pavillonsNetwork.node[80].nic.mac1609_4 RXTXLostPackets 0
scalar pavillonsNetwork.node[80].nic.mac1609_4 TotalLostPackets 0
scalar pavillonsNetwork.node[80].nic.mac1609_4 DroppedPacketsInMac 0
scalar pavillonsNetwork.node[80].nic.mac1609_4 TooLittleTime 0
scalar pavillonsNetwork.node[80].nic.mac1609_4 TimesIntoBackoff 0
scalar pavillonsNetwork.node[80].nic.mac1609_4 SlotsBackoff 0
scalar pavillonsNetwork.node[80].nic.mac1609_4 NumInternalContention 0
scalar pavillonsNetwork.node[80].nic.mac1609_4 totalBusyTime 0
scalar pavillonsNetwork.node[80].nic.mac1609_4 retriesExceeded:count 0
attr recordingmode count
attr source org_car2x_veins_modules_mac_sigRetriesExceeded
scalar pavillonsNetwork.node[80].nic.mac1609_4 sentAcks:count 0
attr recordingmode count
attr source org_car2x_veins_modules_mac_sigSentAck
scalar pavillonsNetwork.node[80].nic.mac1609_4 sentPackets:count 0
attr recordingmode count
attr source org_car2x_veins_modules_mac_sigSentPacket
scalar pavillonsNetwork.node[80].nic.mac1609_4 collisions:count 0
attr recordingmode count
attr source org_car2x_veins_modules_mac_sigCollision
scalar pavillonsNetwork.node[80].nic.mac1609_4 channelBusy:timeavg 0
attr recordingmode timeavg
attr source org_car2x_veins_modules_mac_sigChannelBusy
par pavillonsNetwork.node[80].nic typename "\"org.car2x.veins.modules.nic.Nic80211p\""
par pavillonsNetwork.node[80].nic connectionManagerName "\"connectionManager\""
par pavillonsNetwork.node[80].veinsmobility typename "\"org.car2x.veins.modules.mobility.traci.TraCIMobility\""
par pavillonsNetwork.node[80].veinsmobility notAffectedByHostState true
par pavillonsNetwork.node[80].veinsmobility x 0
par pavillonsNetwork.node[80].veinsmobility y 0
par pavillonsNetwork.node[80].veinsmobility z 0
par pavillonsNetwork.node[80].veinsmobility xOrientation 1
par pavillonsNetwork.node[80].veinsmobility yOrientation 0
par pavillonsNetwork.node[80].veinsmobility zOrientation 0
par pavillonsNetwork.node[80].veinsmobility hostPositionOffset 0m
attr unit m
par pavillonsNetwork.node[80].veinsmobility setHostSpeed false
par pavillonsNetwork.node[80].veinsmobility accidentCount 10
par pavillonsNetwork.node[80].veinsmobility accidentStart 73s
attr unit s
par pavillonsNetwork.node[80].veinsmobility accidentDuration 50s
attr unit s
par pavillonsNetwork.node[80].veinsmobility accidentInterval "uniform(30s, 60s)"
attr unit s
scalar pavillonsNetwork.node[80].veinsmobility startTime 99
scalar pavillonsNetwork.node[80].veinsmobility totalTime 3
scalar pavillonsNetwork.node[80].veinsmobility stopTime 102
scalar pavillonsNetwork.node[80].veinsmobility minSpeed 1.9499120630324
scalar pavillonsNetwork.node[80].veinsmobility maxSpeed 5.1935304757673
scalar pavillonsNetwork.node[80].veinsmobility totalDistance 10.422294445921
scalar pavillonsNetwork.node[80].veinsmobility totalCO2Emission 6.0919058667886
par pavillonsNetwork.node[80] typename "\"org.car2x.veins.nodes.Car\""
par pavillonsNetwork.node[80] applType "\"MyVeinsApp\""
par pavillonsNetwork.node[80] nicType "\"Nic80211p\""
par pavillonsNetwork.node[80] veinsmobilityType "\"org.car2x.veins.modules.mobility.traci.TraCIMobility\""
par pavillonsNetwork.node[81].appl typename "\"org.car2x.veins.modules.application.traci.MyVeinsApp\""
par pavillonsNetwork.node[81].appl headerLength 80bit
attr unit bit
par pavillonsNetwork.node[81].appl sendBeacons false
par pavillonsNetwork.node[81].appl beaconLengthBits 256bit
attr unit bit
par pavillonsNetwork.node[81].appl beaconUserPriority 7
par pavillonsNetwork.node[81].appl beaconInterval 1s
attr unit s
par pavillonsNetwork.node[81].appl dataLengthBits 1024bit
attr unit bit
par pavillonsNetwork.node[81].appl dataOnSch false
par pavillonsNetwork.node[81].appl dataUserPriority 7
par pavillonsNetwork.node[81].appl avoidBeaconSynchronization true
par pavillonsNetwork.node[81].appl sendWSA false
par pavillonsNetwork.node[81].appl wsaLengthBits 250bit
attr unit bit
par pavillonsNetwork.node[81].appl wsaInterval 1s
attr unit s
par pavillonsNetwork.node[81].appl appName "\"My first Veins App!\""
scalar pavillonsNetwork.node[81].appl generatedWSMs 0
scalar pavillonsNetwork.node[81].appl receivedWSMs 0
scalar pavillonsNetwork.node[81].appl generatedBSMs 0
scalar pavillonsNetwork.node[81].appl receivedBSMs 0
scalar pavillonsNetwork.node[81].appl generatedWSAs 0
scalar pavillonsNetwork.node[81].appl receivedWSAs 0
par pavillonsNetwork.node[81].nic.phy80211p typename "\"org.car2x.veins.modules.phy.PhyLayer80211p\""
par pavillonsNetwork.node[81].nic.phy80211p recordStats false
par pavillonsNetwork.node[81].nic.phy80211p usePropagationDelay true
par pavillonsNetwork.node[81].nic.phy80211p noiseFloor -98dBm
attr unit dBm
par pavillonsNetwork.node[81].nic.phy80211p useNoiseFloor true
par pavillonsNetwork.node[81].nic.phy80211p antenna "<Antenna type=\"SampledAntenna1D\" id=\"monopole\">...</Antenna> at /home/simu5g/simu5g-workspace/pavillons//antenna.xml:35"
par pavillonsNetwork.node[81].nic.phy80211p antennaOffsetX 0m
attr unit m
par pavillonsNetwork.node[81].nic.phy80211p antennaOffsetY 0m
attr unit m
par pavillonsNetwork.node[81].nic.phy80211p antennaOffsetZ 1.895m
attr unit m
par pavillonsNetwork.node[81].nic.phy80211p antennaOffsetYaw 0rad
attr unit rad
par pavillonsNetwork.node[81].nic.phy80211p analogueModels "<root>...</root> at /home/simu5g/simu5g-workspace/pavillons//config.xml:34"
par pavillonsNetwork.node[81].nic.phy80211p decider "<root>...</root> at /home/simu5g/simu5g-workspace/pavillons//config.xml:34"
par pavillonsNetwork.node[81].nic.phy80211p minPowerLevel -110dBm
attr unit dBm
par pavillonsNetwork.node[81].nic.phy80211p timeRXToTX 0s
attr unit s
par pavillonsNetwork.node[81].nic.phy80211p timeRXToSleep 0s
attr unit s
par pavillonsNetwork.node[81].nic.phy80211p timeTXToRX 0s
attr unit s
par pavillonsNetwork.node[81].nic.phy80211p timeTXToSleep 0s
attr unit s
par pavillonsNetwork.node[81].nic.phy80211p timeSleepToRX 0s
attr unit s
par pavillonsNetwork.node[81].nic.phy80211p timeSleepToTX 0s
attr unit s
par pavillonsNetwork.node[81].nic.phy80211p initialRadioState 0
par pavillonsNetwork.node[81].nic.phy80211p radioMinAtt 1
par pavillonsNetwork.node[81].nic.phy80211p radioMaxAtt 0
par pavillonsNetwork.node[81].nic.phy80211p nbRadioChannels 1
par pavillonsNetwork.node[81].nic.phy80211p initialRadioChannel 0
par pavillonsNetwork.node[81].nic.phy80211p ccaThreshold -65dBm
attr unit dBm
par pavillonsNetwork.node[81].nic.phy80211p collectCollisionStatistics false
par pavillonsNetwork.node[81].nic.phy80211p allowTxDuringRx false
scalar pavillonsNetwork.node[81].nic.phy80211p busyTime -nan
par pavillonsNetwork.node[81].nic.mac1609_4 typename "\"org.car2x.veins.modules.mac.ieee80211p.Mac1609_4\""
par pavillonsNetwork.node[81].nic.mac1609_4 notAffectedByHostState false
par pavillonsNetwork.node[81].nic.mac1609_4 headerLength 0bit
attr unit bit
par pavillonsNetwork.node[81].nic.mac1609_4 address "\"auto\""
par pavillonsNetwork.node[81].nic.mac1609_4 useServiceChannel false
par pavillonsNetwork.node[81].nic.mac1609_4 serviceChannel 1
par pavillonsNetwork.node[81].nic.mac1609_4 bitrate 6000000bps
attr unit bps
par pavillonsNetwork.node[81].nic.mac1609_4 syncOffset 0.0003s
attr unit s
par pavillonsNetwork.node[81].nic.mac1609_4 txPower 20mW
attr unit mW
par pavillonsNetwork.node[81].nic.mac1609_4 queueSize 0
par pavillonsNetwork.node[81].nic.mac1609_4 dot11RTSThreshold 12000bit
attr unit bit
par pavillonsNetwork.node[81].nic.mac1609_4 dot11ShortRetryLimit 7
par pavillonsNetwork.node[81].nic.mac1609_4 dot11LongRetryLimit 4
par pavillonsNetwork.node[81].nic.mac1609_4 ackLength 112bit
attr unit bit
par pavillonsNetwork.node[81].nic.mac1609_4 useAcks false
par pavillonsNetwork.node[81].nic.mac1609_4 frameErrorRate 0
par pavillonsNetwork.node[81].nic.mac1609_4 ackErrorRate 0
scalar pavillonsNetwork.node[81].nic.mac1609_4 ReceivedUnicastPackets 0
scalar pavillonsNetwork.node[81].nic.mac1609_4 ReceivedBroadcasts 0
scalar pavillonsNetwork.node[81].nic.mac1609_4 SentPackets 0
scalar pavillonsNetwork.node[81].nic.mac1609_4 SentAcknowledgements 0
scalar pavillonsNetwork.node[81].nic.mac1609_4 RetriesExceeded 0
scalar pavillonsNetwork.node[81].nic.mac1609_4 SNIRLostPackets 0
scalar pavillonsNetwork.node[81].nic.mac1609_4 RXTXLostPackets 0
scalar pavillonsNetwork.node[81].nic.mac1609_4 TotalLostPackets 0
scalar pavillonsNetwork.node[81].nic.mac1609_4 DroppedPacketsInMac 0
scalar pavillonsNetwork.node[81].nic.mac1609_4 TooLittleTime 0
scalar pavillonsNetwork.node[81].nic.mac1609_4 TimesIntoBackoff 0
scalar pavillonsNetwork.node[81].nic.mac1609_4 SlotsBackoff 0
scalar pavillonsNetwork.node[81].nic.mac1609_4 NumInternalContention 0
scalar pavillonsNetwork.node[81].nic.mac1609_4 totalBusyTime 0
scalar pavillonsNetwork.node[81].nic.mac1609_4 retriesExceeded:count 0
attr recordingmode count
attr source org_car2x_veins_modules_mac_sigRetriesExceeded
scalar pavillonsNetwork.node[81].nic.mac1609_4 sentAcks:count 0
attr recordingmode count
attr source org_car2x_veins_modules_mac_sigSentAck
scalar pavillonsNetwork.node[81].nic.mac1609_4 sentPackets:count 0
attr recordingmode count
attr source org_car2x_veins_modules_mac_sigSentPacket
scalar pavillonsNetwork.node[81].nic.mac1609_4 collisions:count 0
attr recordingmode count
attr source org_car2x_veins_modules_mac_sigCollision
scalar pavillonsNetwork.node[81].nic.mac1609_4 channelBusy:timeavg -nan
attr recordingmode timeavg
attr source org_car2x_veins_modules_mac_sigChannelBusy
par pavillonsNetwork.node[81].nic typename "\"org.car2x.veins.modules.nic.Nic80211p\""
par pavillonsNetwork.node[81].nic connectionManagerName "\"connectionManager\""
par pavillonsNetwork.node[81].veinsmobility typename "\"org.car2x.veins.modules.mobility.traci.TraCIMobility\""
par pavillonsNetwork.node[81].veinsmobility notAffectedByHostState true
par pavillonsNetwork.node[81].veinsmobility x 0
par pavillonsNetwork.node[81].veinsmobility y 0
par pavillonsNetwork.node[81].veinsmobility z 0
par pavillonsNetwork.node[81].veinsmobility xOrientation 1
par pavillonsNetwork.node[81].veinsmobility yOrientation 0
par pavillonsNetwork.node[81].veinsmobility zOrientation 0
par pavillonsNetwork.node[81].veinsmobility hostPositionOffset 0m
attr unit m
par pavillonsNetwork.node[81].veinsmobility setHostSpeed false
par pavillonsNetwork.node[81].veinsmobility accidentCount 0
par pavillonsNetwork.node[81].veinsmobility accidentStart 39.3539s
attr unit s
par pavillonsNetwork.node[81].veinsmobility accidentDuration "uniform(30s, 60s)"
attr unit s
par pavillonsNetwork.node[81].veinsmobility accidentInterval "uniform(30s, 60s)"
attr unit s
scalar pavillonsNetwork.node[81].veinsmobility startTime 102
scalar pavillonsNetwork.node[81].veinsmobility totalTime 0
scalar pavillonsNetwork.node[81].veinsmobility stopTime 102
scalar pavillonsNetwork.node[81].veinsmobility totalDistance 0
scalar pavillonsNetwork.node[81].veinsmobility totalCO2Emission 0
par pavillonsNetwork.node[81] typename "\"org.car2x.veins.nodes.Car\""
par pavillonsNetwork.node[81] applType "\"MyVeinsApp\""
par pavillonsNetwork.node[81] nicType "\"Nic80211p\""
par pavillonsNetwork.node[81] veinsmobilityType "\"org.car2x.veins.modules.mobility.traci.TraCIMobility\""
par pavillonsNetwork.rsu[0].appl typename "\"org.car2x.veins.modules.application.traci.TraCIDemoRSU11p\""
par pavillonsNetwork.rsu[0].appl headerLength 80bit
attr unit bit
par pavillonsNetwork.rsu[0].appl sendBeacons false
par pavillonsNetwork.rsu[0].appl beaconLengthBits 256bit
attr unit bit
par pavillonsNetwork.rsu[0].appl beaconUserPriority 7
par pavillonsNetwork.rsu[0].appl beaconInterval 1s
attr unit s
par pavillonsNetwork.rsu[0].appl dataLengthBits 1024bit
attr unit bit
par pavillonsNetwork.rsu[0].appl dataOnSch false
par pavillonsNetwork.rsu[0].appl dataUserPriority 5
par pavillonsNetwork.rsu[0].appl avoidBeaconSynchronization true
par pavillonsNetwork.rsu[0].appl sendWSA false
par pavillonsNetwork.rsu[0].appl wsaLengthBits 250bit
attr unit bit
par pavillonsNetwork.rsu[0].appl wsaInterval 1s
attr unit s
scalar pavillonsNetwork.rsu[0].appl generatedWSMs 0
scalar pavillonsNetwork.rsu[0].appl receivedWSMs 0
scalar pavillonsNetwork.rsu[0].appl generatedBSMs 0
scalar pavillonsNetwork.rsu[0].appl receivedBSMs 0
scalar pavillonsNetwork.rsu[0].appl generatedWSAs 0
scalar pavillonsNetwork.rsu[0].appl receivedWSAs 0
par pavillonsNetwork.rsu[0].nic.phy80211p typename "\"org.car2x.veins.modules.phy.PhyLayer80211p\""
par pavillonsNetwork.rsu[0].nic.phy80211p recordStats false
par pavillonsNetwork.rsu[0].nic.phy80211p usePropagationDelay true
par pavillonsNetwork.rsu[0].nic.phy80211p noiseFloor -98dBm
attr unit dBm
par pavillonsNetwork.rsu[0].nic.phy80211p useNoiseFloor true
par pavillonsNetwork.rsu[0].nic.phy80211p antenna "<Antenna type=\"SampledAntenna1D\" id=\"monopole\">...</Antenna> at /home/simu5g/simu5g-workspace/pavillons//antenna.xml:35"
par pavillonsNetwork.rsu[0].nic.phy80211p antennaOffsetX 0m
attr unit m
par pavillonsNetwork.rsu[0].nic.phy80211p antennaOffsetY 0m
attr unit m
par pavillonsNetwork.rsu[0].nic.phy80211p antennaOffsetZ 0m
attr unit m
par pavillonsNetwork.rsu[0].nic.phy80211p antennaOffsetYaw 0rad
attr unit rad
par pavillonsNetwork.rsu[0].nic.phy80211p analogueModels "<root>...</root> at /home/simu5g/simu5g-workspace/pavillons//config.xml:34"
par pavillonsNetwork.rsu[0].nic.phy80211p decider "<root>...</root> at /home/simu5g/simu5g-workspace/pavillons//config.xml:34"
par pavillonsNetwork.rsu[0].nic.phy80211p minPowerLevel -110dBm
attr unit dBm
par pavillonsNetwork.rsu[0].nic.phy80211p timeRXToTX 0s
attr unit s
par pavillonsNetwork.rsu[0].nic.phy80211p timeRXToSleep 0s
attr unit s
par pavillonsNetwork.rsu[0].nic.phy80211p timeTXToRX 0s
attr unit s
par pavillonsNetwork.rsu[0].nic.phy80211p timeTXToSleep 0s
attr unit s
par pavillonsNetwork.rsu[0].nic.phy80211p timeSleepToRX 0s
attr unit s
par pavillonsNetwork.rsu[0].nic.phy80211p timeSleepToTX 0s
attr unit s
par pavillonsNetwork.rsu[0].nic.phy80211p initialRadioState 0
par pavillonsNetwork.rsu[0].nic.phy80211p radioMinAtt 1
par pavillonsNetwork.rsu[0].nic.phy80211p radioMaxAtt 0
par pavillonsNetwork.rsu[0].nic.phy80211p nbRadioChannels 1
par pavillonsNetwork.rsu[0].nic.phy80211p initialRadioChannel 0
par pavillonsNetwork.rsu[0].nic.phy80211p ccaThreshold -65dBm
attr unit dBm
par pavillonsNetwork.rsu[0].nic.phy80211p collectCollisionStatistics false
par pavillonsNetwork.rsu[0].nic.phy80211p allowTxDuringRx false
scalar pavillonsNetwork.rsu[0].nic.phy80211p busyTime 0
par pavillonsNetwork.rsu[0].nic.mac1609_4 typename "\"org.car2x.veins.modules.mac.ieee80211p.Mac1609_4\""
par pavillonsNetwork.rsu[0].nic.mac1609_4 notAffectedByHostState false
par pavillonsNetwork.rsu[0].nic.mac1609_4 headerLength 0bit
attr unit bit
par pavillonsNetwork.rsu[0].nic.mac1609_4 address "\"auto\""
par pavillonsNetwork.rsu[0].nic.mac1609_4 useServiceChannel false
par pavillonsNetwork.rsu[0].nic.mac1609_4 serviceChannel 1
par pavillonsNetwork.rsu[0].nic.mac1609_4 bitrate 6000000bps
attr unit bps
par pavillonsNetwork.rsu[0].nic.mac1609_4 syncOffset 0.0003s
attr unit s
par pavillonsNetwork.rsu[0].nic.mac1609_4 txPower 20mW
attr unit mW
par pavillonsNetwork.rsu[0].nic.mac1609_4 queueSize 0
par pavillonsNetwork.rsu[0].nic.mac1609_4 dot11RTSThreshold 12000bit
attr unit bit
par pavillonsNetwork.rsu[0].nic.mac1609_4 dot11ShortRetryLimit 7
par pavillonsNetwork.rsu[0].nic.mac1609_4 dot11LongRetryLimit 4
par pavillonsNetwork.rsu[0].nic.mac1609_4 ackLength 112bit
attr unit bit
par pavillonsNetwork.rsu[0].nic.mac1609_4 useAcks false
par pavillonsNetwork.rsu[0].nic.mac1609_4 frameErrorRate 0
par pavillonsNetwork.rsu[0].nic.mac1609_4 ackErrorRate 0
scalar pavillonsNetwork.rsu[0].nic.mac1609_4 ReceivedUnicastPackets 0
scalar pavillonsNetwork.rsu[0].nic.mac1609_4 ReceivedBroadcasts 0
scalar pavillonsNetwork.rsu[0].nic.mac1609_4 SentPackets 0
scalar pavillonsNetwork.rsu[0].nic.mac1609_4 SentAcknowledgements 0
scalar pavillonsNetwork.rsu[0].nic.mac1609_4 RetriesExceeded 0
scalar pavillonsNetwork.rsu[0].nic.mac1609_4 SNIRLostPackets 0
scalar pavillonsNetwork.rsu[0].nic.mac1609_4 RXTXLostPackets 0
scalar pavillonsNetwork.rsu[0].nic.mac1609_4 TotalLostPackets 0
scalar pavillonsNetwork.rsu[0].nic.mac1609_4 DroppedPacketsInMac 0
scalar pavillonsNetwork.rsu[0].nic.mac1609_4 TooLittleTime 0
scalar pavillonsNetwork.rsu[0].nic.mac1609_4 TimesIntoBackoff 0
scalar pavillonsNetwork.rsu[0].nic.mac1609_4 SlotsBackoff 0
scalar pavillonsNetwork.rsu[0].nic.mac1609_4 NumInternalContention 0
scalar pavillonsNetwork.rsu[0].nic.mac1609_4 totalBusyTime 0
scalar pavillonsNetwork.rsu[0].nic.mac1609_4 retriesExceeded:count 0
attr recordingmode count
attr source org_car2x_veins_modules_mac_sigRetriesExceeded
scalar pavillonsNetwork.rsu[0].nic.mac1609_4 sentAcks:count 0
attr recordingmode count
attr source org_car2x_veins_modules_mac_sigSentAck
scalar pavillonsNetwork.rsu[0].nic.mac1609_4 sentPackets:count 0
attr recordingmode count
attr source org_car2x_veins_modules_mac_sigSentPacket
scalar pavillonsNetwork.rsu[0].nic.mac1609_4 collisions:count 0
attr recordingmode count
attr source org_car2x_veins_modules_mac_sigCollision
scalar pavillonsNetwork.rsu[0].nic.mac1609_4 channelBusy:timeavg 0
attr recordingmode timeavg
attr source org_car2x_veins_modules_mac_sigChannelBusy
par pavillonsNetwork.rsu[0].nic typename "\"org.car2x.veins.modules.nic.Nic80211p\""
par pavillonsNetwork.rsu[0].nic connectionManagerName "\"connectionManager\""
par pavillonsNetwork.rsu[0].mobility typename "\"org.car2x.veins.base.modules.BaseMobility\""
par pavillonsNetwork.rsu[0].mobility notAffectedByHostState true
par pavillonsNetwork.rsu[0].mobility x 2000
par pavillonsNetwork.rsu[0].mobility y 2000
par pavillonsNetwork.rsu[0].mobility z 3
par pavillonsNetwork.rsu[0].mobility xOrientation 1
par pavillonsNetwork.rsu[0].mobility yOrientation 0
par pavillonsNetwork.rsu[0].mobility zOrientation 0
par pavillonsNetwork.rsu[0] typename "\"org.car2x.veins.nodes.RSU\""
par pavillonsNetwork.rsu[0] applType "\"TraCIDemoRSU11p\""
par pavillonsNetwork.rsu[0] nicType "\"Nic80211p\""
par pavillonsNetwork typename "\"pavillonsNetwork\""
par pavillonsNetwork playgroundSizeX 2500m
attr unit m
par pavillonsNetwork playgroundSizeY 2500m
attr unit m
par pavillonsNetwork playgroundSizeZ 50m
attr unit m

